
---------- Begin Simulation Statistics ----------
final_tick                                  766089144                       # Number of ticks from beginning of simulation (restored from checkpoints and never reset)
host_inst_rate                                  68475                       # Simulator instruction rate (inst/s)
host_mem_usage                                 696328                       # Number of bytes of host memory used
host_op_rate                                   139257                       # Simulator op (including micro ops) rate (op/s)
host_seconds                                    34.37                       # Real time elapsed on the host
host_tick_rate                               22288108                       # Simulator tick rate (ticks/s)
sim_freq                                 1000000000000                       # Frequency of simulated ticks
sim_insts                                     2353606                       # Number of instructions simulated
sim_ops                                       4786561                       # Number of ops (including micro ops) simulated
sim_seconds                                  0.000766                       # Number of seconds simulated
sim_ticks                                   766089144                       # Number of ticks simulated
system.cpu.branchPred.BTBCorrect                    0                       # Number of correct BTB predictions (this stat may not work properly.
system.cpu.branchPred.BTBHitPct              0.000000                       # BTB Hit Percentage
system.cpu.branchPred.BTBHits                       0                       # Number of BTB hits
system.cpu.branchPred.BTBLookups               550406                       # Number of BTB lookups
system.cpu.branchPred.RASInCorrect                  4                       # Number of incorrect RAS predictions.
system.cpu.branchPred.condIncorrect             26718                       # Number of conditional branches incorrect
system.cpu.branchPred.condPredicted            427508                       # Number of conditional branches predicted
system.cpu.branchPred.indirectHits             352485                       # Number of indirect target hits.
system.cpu.branchPred.indirectLookups          550406                       # Number of indirect predictor lookups.
system.cpu.branchPred.indirectMisses           197921                       # Number of indirect misses.
system.cpu.branchPred.lookups                  720922                       # Number of BP lookups
system.cpu.branchPred.usedRAS                  149288                       # Number of times the RAS was used to get a target.
system.cpu.branchPredindirectMispredicted        16537                       # Number of mispredicted indirect branches.
system.cpu.cc_regfile_reads                   1970070                       # number of cc regfile reads
system.cpu.cc_regfile_writes                  1092345                       # number of cc regfile writes
system.cpu.commit.amos                              0                       # Number of atomic instructions committed
system.cpu.commit.branchMispredicts             26814                       # The number of times a branch was mispredicted
system.cpu.commit.branches                     542219                       # Number of branches committed
system.cpu.commit.bw_lim_events                283281                       # number cycles where commit BW limit reached
system.cpu.commit.commitNonSpecStalls              42                       # The number of times commit has been forced to stall to communicate backwards
system.cpu.commit.commitSquashedInsts          764136                       # The number of squashed insts skipped by commit
system.cpu.commit.committedInsts              2353606                       # Number of instructions committed
system.cpu.commit.committedOps                4786561                       # Number of ops (including micro ops) committed
system.cpu.commit.committed_per_cycle::samples      1877280                       # Number of insts commited each cycle
system.cpu.commit.committed_per_cycle::mean     2.549732                       # Number of insts commited each cycle
system.cpu.commit.committed_per_cycle::stdev     2.841228                       # Number of insts commited each cycle
system.cpu.commit.committed_per_cycle::underflows            0      0.00%      0.00% # Number of insts commited each cycle
system.cpu.commit.committed_per_cycle::0       679677     36.21%     36.21% # Number of insts commited each cycle
system.cpu.commit.committed_per_cycle::1       226139     12.05%     48.25% # Number of insts commited each cycle
system.cpu.commit.committed_per_cycle::2       235439     12.54%     60.79% # Number of insts commited each cycle
system.cpu.commit.committed_per_cycle::3       210204     11.20%     71.99% # Number of insts commited each cycle
system.cpu.commit.committed_per_cycle::4       128646      6.85%     78.84% # Number of insts commited each cycle
system.cpu.commit.committed_per_cycle::5        39563      2.11%     80.95% # Number of insts commited each cycle
system.cpu.commit.committed_per_cycle::6        40032      2.13%     83.08% # Number of insts commited each cycle
system.cpu.commit.committed_per_cycle::7        34299      1.83%     84.91% # Number of insts commited each cycle
system.cpu.commit.committed_per_cycle::8       283281     15.09%    100.00% # Number of insts commited each cycle
system.cpu.commit.committed_per_cycle::overflows            0      0.00%    100.00% # Number of insts commited each cycle
system.cpu.commit.committed_per_cycle::min_value            0                       # Number of insts commited each cycle
system.cpu.commit.committed_per_cycle::max_value            8                       # Number of insts commited each cycle
system.cpu.commit.committed_per_cycle::total      1877280                       # Number of insts commited each cycle
system.cpu.commit.fp_insts                      10469                       # Number of committed floating point instructions.
system.cpu.commit.function_calls               117358                       # Number of function calls committed.
system.cpu.commit.int_insts                   4691973                       # Number of committed integer instructions.
system.cpu.commit.loads                        689655                       # Number of loads committed
system.cpu.commit.membars                          20                       # Number of memory barriers committed
system.cpu.commit.op_class_0::No_OpClass        88513      1.85%      1.85% # Class of committed instruction
system.cpu.commit.op_class_0::IntAlu          3382653     70.67%     72.52% # Class of committed instruction
system.cpu.commit.op_class_0::IntMult            5466      0.11%     72.63% # Class of committed instruction
system.cpu.commit.op_class_0::IntDiv               14      0.00%     72.63% # Class of committed instruction
system.cpu.commit.op_class_0::FloatAdd            501      0.01%     72.64% # Class of committed instruction
system.cpu.commit.op_class_0::FloatCmp              0      0.00%     72.64% # Class of committed instruction
system.cpu.commit.op_class_0::FloatCvt              0      0.00%     72.64% # Class of committed instruction
system.cpu.commit.op_class_0::FloatMult             0      0.00%     72.64% # Class of committed instruction
system.cpu.commit.op_class_0::FloatMultAcc            0      0.00%     72.64% # Class of committed instruction
system.cpu.commit.op_class_0::FloatDiv              0      0.00%     72.64% # Class of committed instruction
system.cpu.commit.op_class_0::FloatMisc             0      0.00%     72.64% # Class of committed instruction
system.cpu.commit.op_class_0::FloatSqrt             0      0.00%     72.64% # Class of committed instruction
system.cpu.commit.op_class_0::SimdAdd               4      0.00%     72.64% # Class of committed instruction
system.cpu.commit.op_class_0::SimdAddAcc            0      0.00%     72.64% # Class of committed instruction
system.cpu.commit.op_class_0::SimdAlu              47      0.00%     72.65% # Class of committed instruction
system.cpu.commit.op_class_0::SimdCmp               0      0.00%     72.65% # Class of committed instruction
system.cpu.commit.op_class_0::SimdCvt            1970      0.04%     72.69% # Class of committed instruction
system.cpu.commit.op_class_0::SimdMisc           5473      0.11%     72.80% # Class of committed instruction
system.cpu.commit.op_class_0::SimdMult              0      0.00%     72.80% # Class of committed instruction
system.cpu.commit.op_class_0::SimdMultAcc            0      0.00%     72.80% # Class of committed instruction
system.cpu.commit.op_class_0::SimdShift             3      0.00%     72.80% # Class of committed instruction
system.cpu.commit.op_class_0::SimdShiftAcc            0      0.00%     72.80% # Class of committed instruction
system.cpu.commit.op_class_0::SimdDiv               0      0.00%     72.80% # Class of committed instruction
system.cpu.commit.op_class_0::SimdSqrt              0      0.00%     72.80% # Class of committed instruction
system.cpu.commit.op_class_0::SimdFloatAdd            0      0.00%     72.80% # Class of committed instruction
system.cpu.commit.op_class_0::SimdFloatAlu            0      0.00%     72.80% # Class of committed instruction
system.cpu.commit.op_class_0::SimdFloatCmp            0      0.00%     72.80% # Class of committed instruction
system.cpu.commit.op_class_0::SimdFloatCvt            0      0.00%     72.80% # Class of committed instruction
system.cpu.commit.op_class_0::SimdFloatDiv            0      0.00%     72.80% # Class of committed instruction
system.cpu.commit.op_class_0::SimdFloatMisc            0      0.00%     72.80% # Class of committed instruction
system.cpu.commit.op_class_0::SimdFloatMult            0      0.00%     72.80% # Class of committed instruction
system.cpu.commit.op_class_0::SimdFloatMultAcc            0      0.00%     72.80% # Class of committed instruction
system.cpu.commit.op_class_0::SimdFloatSqrt            0      0.00%     72.80% # Class of committed instruction
system.cpu.commit.op_class_0::SimdReduceAdd            0      0.00%     72.80% # Class of committed instruction
system.cpu.commit.op_class_0::SimdReduceAlu            0      0.00%     72.80% # Class of committed instruction
system.cpu.commit.op_class_0::SimdReduceCmp            0      0.00%     72.80% # Class of committed instruction
system.cpu.commit.op_class_0::SimdFloatReduceAdd            0      0.00%     72.80% # Class of committed instruction
system.cpu.commit.op_class_0::SimdFloatReduceCmp            0      0.00%     72.80% # Class of committed instruction
system.cpu.commit.op_class_0::SimdAes               0      0.00%     72.80% # Class of committed instruction
system.cpu.commit.op_class_0::SimdAesMix            0      0.00%     72.80% # Class of committed instruction
system.cpu.commit.op_class_0::SimdSha1Hash            0      0.00%     72.80% # Class of committed instruction
system.cpu.commit.op_class_0::SimdSha1Hash2            0      0.00%     72.80% # Class of committed instruction
system.cpu.commit.op_class_0::SimdSha256Hash            0      0.00%     72.80% # Class of committed instruction
system.cpu.commit.op_class_0::SimdSha256Hash2            0      0.00%     72.80% # Class of committed instruction
system.cpu.commit.op_class_0::SimdShaSigma2            0      0.00%     72.80% # Class of committed instruction
system.cpu.commit.op_class_0::SimdShaSigma3            0      0.00%     72.80% # Class of committed instruction
system.cpu.commit.op_class_0::SimdPredAlu            0      0.00%     72.80% # Class of committed instruction
system.cpu.commit.op_class_0::MemRead          687693     14.37%     87.17% # Class of committed instruction
system.cpu.commit.op_class_0::MemWrite         612262     12.79%     99.96% # Class of committed instruction
system.cpu.commit.op_class_0::FloatMemRead         1962      0.04%    100.00% # Class of committed instruction
system.cpu.commit.op_class_0::FloatMemWrite            0      0.00%    100.00% # Class of committed instruction
system.cpu.commit.op_class_0::IprAccess             0      0.00%    100.00% # Class of committed instruction
system.cpu.commit.op_class_0::InstPrefetch            0      0.00%    100.00% # Class of committed instruction
system.cpu.commit.op_class_0::total           4786561                       # Class of committed instruction
system.cpu.commit.refs                        1301917                       # Number of memory references committed
system.cpu.commit.swp_count                         0                       # Number of s/w prefetches committed
system.cpu.commit.vec_insts                         0                       # Number of committed Vector instructions.
system.cpu.committedInsts                     2353606                       # Number of Instructions Simulated
system.cpu.committedOps                       4786561                       # Number of Ops (including micro ops) Simulated
system.cpu.cpi                               0.977466                       # CPI: Cycles Per Instruction
system.cpu.cpi_total                         0.977466                       # CPI: Total CPI of All Threads
system.cpu.decode.BlockedCycles                322918                       # Number of cycles decode is blocked
system.cpu.decode.DecodedInsts                5885290                       # Number of instructions handled by decode
system.cpu.decode.IdleCycles                   732534                       # Number of cycles decode is idle
system.cpu.decode.RunCycles                    812888                       # Number of cycles decode is running
system.cpu.decode.SquashCycles                  27066                       # Number of cycles decode is squashing
system.cpu.decode.UnblockCycles                 93165                       # Number of cycles decode is unblocking
system.cpu.dtb.rdAccesses                      738358                       # TLB accesses on read requests
system.cpu.dtb.rdMisses                           793                       # TLB misses on read requests
system.cpu.dtb.wrAccesses                      638680                       # TLB accesses on write requests
system.cpu.dtb.wrMisses                            33                       # TLB misses on write requests
system.cpu.fetch.Branches                      720922                       # Number of branches that fetch encountered
system.cpu.fetch.CacheLines                    486783                       # Number of cache lines fetched
system.cpu.fetch.Cycles                       1164202                       # Number of cycles fetch has run and was not squashing or blocked
system.cpu.fetch.IcacheSquashes                  7621                       # Number of outstanding Icache misses that were squashed
system.cpu.fetch.IcacheWaitRetryStallCycles          146                       # Number of stall cycles due to full MSHR
system.cpu.fetch.Insts                        2921161                       # Number of instructions fetch has processed
system.cpu.fetch.MiscStallCycles                  103                       # Number of cycles fetch has spent waiting on interrupts, or bad addresses, or out of MSHRs
system.cpu.fetch.PendingQuiesceStallCycles            7                       # Number of stall cycles due to pending quiesce instructions
system.cpu.fetch.PendingTrapStallCycles           594                       # Number of stall cycles due to pending traps
system.cpu.fetch.SquashCycles                   54132                       # Number of cycles fetch has spent squashing
system.cpu.fetch.branchRate                  0.313367                       # Number of branch fetches per cycle
system.cpu.fetch.icacheStallCycles             796453                       # Number of cycles fetch is stalled on an Icache miss
system.cpu.fetch.predictedBranches             501773                       # Number of branches that fetch has predicted taken
system.cpu.fetch.rate                        1.269756                       # Number of inst fetches per cycle
system.cpu.fetch.rateDist::samples            1988571                       # Number of instructions fetched each cycle (Total)
system.cpu.fetch.rateDist::mean              3.090453                       # Number of instructions fetched each cycle (Total)
system.cpu.fetch.rateDist::stdev             3.519065                       # Number of instructions fetched each cycle (Total)
system.cpu.fetch.rateDist::underflows               0      0.00%      0.00% # Number of instructions fetched each cycle (Total)
system.cpu.fetch.rateDist::0                   996979     50.14%     50.14% # Number of instructions fetched each cycle (Total)
system.cpu.fetch.rateDist::1                    46673      2.35%     52.48% # Number of instructions fetched each cycle (Total)
system.cpu.fetch.rateDist::2                    61896      3.11%     55.60% # Number of instructions fetched each cycle (Total)
system.cpu.fetch.rateDist::3                   102617      5.16%     60.76% # Number of instructions fetched each cycle (Total)
system.cpu.fetch.rateDist::4                    59291      2.98%     63.74% # Number of instructions fetched each cycle (Total)
system.cpu.fetch.rateDist::5                    50135      2.52%     66.26% # Number of instructions fetched each cycle (Total)
system.cpu.fetch.rateDist::6                    41155      2.07%     68.33% # Number of instructions fetched each cycle (Total)
system.cpu.fetch.rateDist::7                   106099      5.34%     73.66% # Number of instructions fetched each cycle (Total)
system.cpu.fetch.rateDist::8                   523726     26.34%    100.00% # Number of instructions fetched each cycle (Total)
system.cpu.fetch.rateDist::overflows                0      0.00%    100.00% # Number of instructions fetched each cycle (Total)
system.cpu.fetch.rateDist::min_value                0                       # Number of instructions fetched each cycle (Total)
system.cpu.fetch.rateDist::max_value                8                       # Number of instructions fetched each cycle (Total)
system.cpu.fetch.rateDist::total              1988571                       # Number of instructions fetched each cycle (Total)
system.cpu.fp_regfile_reads                     17449                       # number of floating regfile reads
system.cpu.fp_regfile_writes                     9510                       # number of floating regfile writes
system.cpu.idleCycles                          311998                       # Total number of cycles that the CPU has spent unscheduled due to idling
system.cpu.iew.branchMispredicts                31565                       # Number of branch mispredicts detected at execute
system.cpu.iew.exec_branches                   576303                       # Number of branches executed
system.cpu.iew.exec_nop                             0                       # number of nop insts executed
system.cpu.iew.exec_rate                     2.239333                       # Inst execution rate
system.cpu.iew.exec_refs                      1376793                       # number of memory reference insts executed
system.cpu.iew.exec_stores                     638680                       # Number of stores executed
system.cpu.iew.exec_swp                             0                       # number of swp insts executed
system.cpu.iew.iewBlockCycles                   87993                       # Number of cycles IEW is blocking
system.cpu.iew.iewDispLoadInsts                804990                       # Number of dispatched load instructions
system.cpu.iew.iewDispNonSpecInsts                708                       # Number of dispatched non-speculative instructions
system.cpu.iew.iewDispSquashedInsts              2345                       # Number of squashed instructions skipped by dispatch
system.cpu.iew.iewDispStoreInsts               691117                       # Number of dispatched store instructions
system.cpu.iew.iewDispatchedInsts             5550713                       # Number of instructions dispatched to IQ
system.cpu.iew.iewExecLoadInsts                738113                       # Number of load instructions executed
system.cpu.iew.iewExecSquashedInsts             47468                       # Number of squashed instructions skipped in execute
system.cpu.iew.iewExecutedInsts               5151740                       # Number of executed instructions
system.cpu.iew.iewIQFullEvents                     84                       # Number of times the IQ has become full, causing a stall
system.cpu.iew.iewIdleCycles                        0                       # Number of cycles IEW is idle
system.cpu.iew.iewLSQFullEvents                   153                       # Number of times the LSQ has become full, causing a stall
system.cpu.iew.iewSquashCycles                  27066                       # Number of cycles IEW is squashing
system.cpu.iew.iewUnblockCycles                   253                       # Number of cycles IEW is unblocking
system.cpu.iew.lsq.thread0.blockedLoads             0                       # Number of blocked loads due to partial load-store forwarding
system.cpu.iew.lsq.thread0.cacheBlocked             9                       # Number of times an access to memory failed due to the cache being blocked
system.cpu.iew.lsq.thread0.forwLoads           347263                       # Number of loads that had data forwarded from stores
system.cpu.iew.lsq.thread0.ignoredResponses          419                       # Number of memory responses ignored because the instruction is squashed
system.cpu.iew.lsq.thread0.invAddrLoads             0                       # Number of loads ignored due to an invalid address
system.cpu.iew.lsq.thread0.invAddrSwpfs             0                       # Number of software prefetches ignored due to an invalid address
system.cpu.iew.lsq.thread0.memOrderViolation          344                       # Number of memory ordering violations
system.cpu.iew.lsq.thread0.rescheduledLoads            0                       # Number of loads that were rescheduled
system.cpu.iew.lsq.thread0.squashedLoads       115332                       # Number of loads squashed
system.cpu.iew.lsq.thread0.squashedStores        78854                       # Number of stores squashed
system.cpu.iew.memOrderViolationEvents            344                       # Number of memory order violations
system.cpu.iew.predictedNotTakenIncorrect        24317                       # Number of branches that were predicted not taken incorrectly
system.cpu.iew.predictedTakenIncorrect           7248                       # Number of branches that were predicted taken incorrectly
system.cpu.iew.wb_consumers                   6509665                       # num instructions consuming a value
system.cpu.iew.wb_count                       5135018                       # cumulative count of insts written-back
system.cpu.iew.wb_fanout                     0.543546                       # average fanout of values written-back
system.cpu.iew.wb_producers                   3538305                       # num instructions producing a value
system.cpu.iew.wb_rate                       2.232064                       # insts written-back per cycle
system.cpu.iew.wb_sent                        5144113                       # cumulative count of insts sent to commit
system.cpu.int_regfile_reads                  8509874                       # number of integer regfile reads
system.cpu.int_regfile_writes                 3910707                       # number of integer regfile writes
system.cpu.ipc                               1.023054                       # IPC: Instructions Per Cycle
system.cpu.ipc_total                         1.023054                       # IPC: Total IPC of All Threads
system.cpu.iq.FU_type_0::No_OpClass             98656      1.90%      1.90% # Type of FU issued
system.cpu.iq.FU_type_0::IntAlu               3690977     70.99%     72.89% # Type of FU issued
system.cpu.iq.FU_type_0::IntMult                 5775      0.11%     73.00% # Type of FU issued
system.cpu.iq.FU_type_0::IntDiv                    14      0.00%     73.00% # Type of FU issued
system.cpu.iq.FU_type_0::FloatAdd                 514      0.01%     73.01% # Type of FU issued
system.cpu.iq.FU_type_0::FloatCmp                   0      0.00%     73.01% # Type of FU issued
system.cpu.iq.FU_type_0::FloatCvt                   0      0.00%     73.01% # Type of FU issued
system.cpu.iq.FU_type_0::FloatMult                  0      0.00%     73.01% # Type of FU issued
system.cpu.iq.FU_type_0::FloatMultAcc               0      0.00%     73.01% # Type of FU issued
system.cpu.iq.FU_type_0::FloatDiv                   0      0.00%     73.01% # Type of FU issued
system.cpu.iq.FU_type_0::FloatMisc                  0      0.00%     73.01% # Type of FU issued
system.cpu.iq.FU_type_0::FloatSqrt                  0      0.00%     73.01% # Type of FU issued
system.cpu.iq.FU_type_0::SimdAdd                    6      0.00%     73.01% # Type of FU issued
system.cpu.iq.FU_type_0::SimdAddAcc                 0      0.00%     73.01% # Type of FU issued
system.cpu.iq.FU_type_0::SimdAlu                   74      0.00%     73.01% # Type of FU issued
system.cpu.iq.FU_type_0::SimdCmp                    0      0.00%     73.01% # Type of FU issued
system.cpu.iq.FU_type_0::SimdCvt                 2422      0.05%     73.06% # Type of FU issued
system.cpu.iq.FU_type_0::SimdMisc                5955      0.11%     73.17% # Type of FU issued
system.cpu.iq.FU_type_0::SimdMult                   0      0.00%     73.17% # Type of FU issued
system.cpu.iq.FU_type_0::SimdMultAcc                0      0.00%     73.17% # Type of FU issued
system.cpu.iq.FU_type_0::SimdShift                  5      0.00%     73.17% # Type of FU issued
system.cpu.iq.FU_type_0::SimdShiftAcc               0      0.00%     73.17% # Type of FU issued
system.cpu.iq.FU_type_0::SimdDiv                    0      0.00%     73.17% # Type of FU issued
system.cpu.iq.FU_type_0::SimdSqrt                   0      0.00%     73.17% # Type of FU issued
system.cpu.iq.FU_type_0::SimdFloatAdd               0      0.00%     73.17% # Type of FU issued
system.cpu.iq.FU_type_0::SimdFloatAlu               0      0.00%     73.17% # Type of FU issued
system.cpu.iq.FU_type_0::SimdFloatCmp               0      0.00%     73.17% # Type of FU issued
system.cpu.iq.FU_type_0::SimdFloatCvt               0      0.00%     73.17% # Type of FU issued
system.cpu.iq.FU_type_0::SimdFloatDiv               0      0.00%     73.17% # Type of FU issued
system.cpu.iq.FU_type_0::SimdFloatMisc              0      0.00%     73.17% # Type of FU issued
system.cpu.iq.FU_type_0::SimdFloatMult              0      0.00%     73.17% # Type of FU issued
system.cpu.iq.FU_type_0::SimdFloatMultAcc            0      0.00%     73.17% # Type of FU issued
system.cpu.iq.FU_type_0::SimdFloatSqrt              0      0.00%     73.17% # Type of FU issued
system.cpu.iq.FU_type_0::SimdReduceAdd              0      0.00%     73.17% # Type of FU issued
system.cpu.iq.FU_type_0::SimdReduceAlu              0      0.00%     73.17% # Type of FU issued
system.cpu.iq.FU_type_0::SimdReduceCmp              0      0.00%     73.17% # Type of FU issued
system.cpu.iq.FU_type_0::SimdFloatReduceAdd            0      0.00%     73.17% # Type of FU issued
system.cpu.iq.FU_type_0::SimdFloatReduceCmp            0      0.00%     73.17% # Type of FU issued
system.cpu.iq.FU_type_0::SimdAes                    0      0.00%     73.17% # Type of FU issued
system.cpu.iq.FU_type_0::SimdAesMix                 0      0.00%     73.17% # Type of FU issued
system.cpu.iq.FU_type_0::SimdSha1Hash               0      0.00%     73.17% # Type of FU issued
system.cpu.iq.FU_type_0::SimdSha1Hash2              0      0.00%     73.17% # Type of FU issued
system.cpu.iq.FU_type_0::SimdSha256Hash             0      0.00%     73.17% # Type of FU issued
system.cpu.iq.FU_type_0::SimdSha256Hash2            0      0.00%     73.17% # Type of FU issued
system.cpu.iq.FU_type_0::SimdShaSigma2              0      0.00%     73.17% # Type of FU issued
system.cpu.iq.FU_type_0::SimdShaSigma3              0      0.00%     73.17% # Type of FU issued
system.cpu.iq.FU_type_0::SimdPredAlu                0      0.00%     73.17% # Type of FU issued
system.cpu.iq.FU_type_0::MemRead               745707     14.34%     87.52% # Type of FU issued
system.cpu.iq.FU_type_0::MemWrite              646405     12.43%     99.95% # Type of FU issued
system.cpu.iq.FU_type_0::FloatMemRead            2692      0.05%    100.00% # Type of FU issued
system.cpu.iq.FU_type_0::FloatMemWrite             12      0.00%    100.00% # Type of FU issued
system.cpu.iq.FU_type_0::IprAccess                  0      0.00%    100.00% # Type of FU issued
system.cpu.iq.FU_type_0::InstPrefetch               0      0.00%    100.00% # Type of FU issued
system.cpu.iq.FU_type_0::total                5199214                       # Type of FU issued
system.cpu.iq.fp_alu_accesses                   12242                       # Number of floating point alu accesses
system.cpu.iq.fp_inst_queue_reads               24442                       # Number of floating instruction queue reads
system.cpu.iq.fp_inst_queue_wakeup_accesses        11896                       # Number of floating instruction queue wakeup accesses
system.cpu.iq.fp_inst_queue_writes              15083                       # Number of floating instruction queue writes
system.cpu.iq.fu_busy_cnt                       65154                       # FU busy when requested
system.cpu.iq.fu_busy_rate                   0.012532                       # FU busy rate (busy events/executed inst)
system.cpu.iq.fu_full::No_OpClass                   0      0.00%      0.00% # attempts to use FU when none available
system.cpu.iq.fu_full::IntAlu                   43154     66.23%     66.23% # attempts to use FU when none available
system.cpu.iq.fu_full::IntMult                      0      0.00%     66.23% # attempts to use FU when none available
system.cpu.iq.fu_full::IntDiv                       0      0.00%     66.23% # attempts to use FU when none available
system.cpu.iq.fu_full::FloatAdd                     0      0.00%     66.23% # attempts to use FU when none available
system.cpu.iq.fu_full::FloatCmp                     0      0.00%     66.23% # attempts to use FU when none available
system.cpu.iq.fu_full::FloatCvt                     0      0.00%     66.23% # attempts to use FU when none available
system.cpu.iq.fu_full::FloatMult                    0      0.00%     66.23% # attempts to use FU when none available
system.cpu.iq.fu_full::FloatMultAcc                 0      0.00%     66.23% # attempts to use FU when none available
system.cpu.iq.fu_full::FloatDiv                     0      0.00%     66.23% # attempts to use FU when none available
system.cpu.iq.fu_full::FloatMisc                    0      0.00%     66.23% # attempts to use FU when none available
system.cpu.iq.fu_full::FloatSqrt                    0      0.00%     66.23% # attempts to use FU when none available
system.cpu.iq.fu_full::SimdAdd                      0      0.00%     66.23% # attempts to use FU when none available
system.cpu.iq.fu_full::SimdAddAcc                   0      0.00%     66.23% # attempts to use FU when none available
system.cpu.iq.fu_full::SimdAlu                      4      0.01%     66.24% # attempts to use FU when none available
system.cpu.iq.fu_full::SimdCmp                      0      0.00%     66.24% # attempts to use FU when none available
system.cpu.iq.fu_full::SimdCvt                     41      0.06%     66.30% # attempts to use FU when none available
system.cpu.iq.fu_full::SimdMisc                     0      0.00%     66.30% # attempts to use FU when none available
system.cpu.iq.fu_full::SimdMult                     0      0.00%     66.30% # attempts to use FU when none available
system.cpu.iq.fu_full::SimdMultAcc                  0      0.00%     66.30% # attempts to use FU when none available
system.cpu.iq.fu_full::SimdShift                    0      0.00%     66.30% # attempts to use FU when none available
system.cpu.iq.fu_full::SimdShiftAcc                 0      0.00%     66.30% # attempts to use FU when none available
system.cpu.iq.fu_full::SimdDiv                      0      0.00%     66.30% # attempts to use FU when none available
system.cpu.iq.fu_full::SimdSqrt                     0      0.00%     66.30% # attempts to use FU when none available
system.cpu.iq.fu_full::SimdFloatAdd                 0      0.00%     66.30% # attempts to use FU when none available
system.cpu.iq.fu_full::SimdFloatAlu                 0      0.00%     66.30% # attempts to use FU when none available
system.cpu.iq.fu_full::SimdFloatCmp                 0      0.00%     66.30% # attempts to use FU when none available
system.cpu.iq.fu_full::SimdFloatCvt                 0      0.00%     66.30% # attempts to use FU when none available
system.cpu.iq.fu_full::SimdFloatDiv                 0      0.00%     66.30% # attempts to use FU when none available
system.cpu.iq.fu_full::SimdFloatMisc                0      0.00%     66.30% # attempts to use FU when none available
system.cpu.iq.fu_full::SimdFloatMult                0      0.00%     66.30% # attempts to use FU when none available
system.cpu.iq.fu_full::SimdFloatMultAcc             0      0.00%     66.30% # attempts to use FU when none available
system.cpu.iq.fu_full::SimdFloatSqrt                0      0.00%     66.30% # attempts to use FU when none available
system.cpu.iq.fu_full::SimdReduceAdd                0      0.00%     66.30% # attempts to use FU when none available
system.cpu.iq.fu_full::SimdReduceAlu                0      0.00%     66.30% # attempts to use FU when none available
system.cpu.iq.fu_full::SimdReduceCmp                0      0.00%     66.30% # attempts to use FU when none available
system.cpu.iq.fu_full::SimdFloatReduceAdd            0      0.00%     66.30% # attempts to use FU when none available
system.cpu.iq.fu_full::SimdFloatReduceCmp            0      0.00%     66.30% # attempts to use FU when none available
system.cpu.iq.fu_full::SimdAes                      0      0.00%     66.30% # attempts to use FU when none available
system.cpu.iq.fu_full::SimdAesMix                   0      0.00%     66.30% # attempts to use FU when none available
system.cpu.iq.fu_full::SimdSha1Hash                 0      0.00%     66.30% # attempts to use FU when none available
system.cpu.iq.fu_full::SimdSha1Hash2                0      0.00%     66.30% # attempts to use FU when none available
system.cpu.iq.fu_full::SimdSha256Hash               0      0.00%     66.30% # attempts to use FU when none available
system.cpu.iq.fu_full::SimdSha256Hash2              0      0.00%     66.30% # attempts to use FU when none available
system.cpu.iq.fu_full::SimdShaSigma2                0      0.00%     66.30% # attempts to use FU when none available
system.cpu.iq.fu_full::SimdShaSigma3                0      0.00%     66.30% # attempts to use FU when none available
system.cpu.iq.fu_full::SimdPredAlu                  0      0.00%     66.30% # attempts to use FU when none available
system.cpu.iq.fu_full::MemRead                  13155     20.19%     86.49% # attempts to use FU when none available
system.cpu.iq.fu_full::MemWrite                  8797     13.50%    100.00% # attempts to use FU when none available
system.cpu.iq.fu_full::FloatMemRead                 0      0.00%    100.00% # attempts to use FU when none available
system.cpu.iq.fu_full::FloatMemWrite                3      0.00%    100.00% # attempts to use FU when none available
system.cpu.iq.fu_full::IprAccess                    0      0.00%    100.00% # attempts to use FU when none available
system.cpu.iq.fu_full::InstPrefetch                 0      0.00%    100.00% # attempts to use FU when none available
system.cpu.iq.int_alu_accesses                5153470                       # Number of integer alu accesses
system.cpu.iq.int_inst_queue_reads           12430842                       # Number of integer instruction queue reads
system.cpu.iq.int_inst_queue_wakeup_accesses      5123122                       # Number of integer instruction queue wakeup accesses
system.cpu.iq.int_inst_queue_writes           6300094                       # Number of integer instruction queue writes
system.cpu.iq.iqInstsAdded                    5548558                       # Number of instructions added to the IQ (excludes non-spec)
system.cpu.iq.iqInstsIssued                   5199214                       # Number of instructions issued
system.cpu.iq.iqNonSpecInstsAdded                2155                       # Number of non-speculative instructions added to the IQ
system.cpu.iq.iqSquashedInstsExamined          764132                       # Number of squashed instructions iterated over during squash; mainly for profiling
system.cpu.iq.iqSquashedInstsIssued              3137                       # Number of squashed instructions issued
system.cpu.iq.iqSquashedNonSpecRemoved           2113                       # Number of squashed non-spec instructions that were removed
system.cpu.iq.iqSquashedOperandsExamined      1227060                       # Number of squashed operands that are examined and possibly removed from graph
system.cpu.iq.issued_per_cycle::samples       1988571                       # Number of insts issued each cycle
system.cpu.iq.issued_per_cycle::mean         2.614548                       # Number of insts issued each cycle
system.cpu.iq.issued_per_cycle::stdev        2.199374                       # Number of insts issued each cycle
system.cpu.iq.issued_per_cycle::underflows            0      0.00%      0.00% # Number of insts issued each cycle
system.cpu.iq.issued_per_cycle::0              551053     27.71%     27.71% # Number of insts issued each cycle
system.cpu.iq.issued_per_cycle::1              151668      7.63%     35.34% # Number of insts issued each cycle
system.cpu.iq.issued_per_cycle::2              290532     14.61%     49.95% # Number of insts issued each cycle
system.cpu.iq.issued_per_cycle::3              281653     14.16%     64.11% # Number of insts issued each cycle
system.cpu.iq.issued_per_cycle::4              309653     15.57%     79.68% # Number of insts issued each cycle
system.cpu.iq.issued_per_cycle::5              172029      8.65%     88.33% # Number of insts issued each cycle
system.cpu.iq.issued_per_cycle::6              129255      6.50%     94.83% # Number of insts issued each cycle
system.cpu.iq.issued_per_cycle::7               74588      3.75%     98.58% # Number of insts issued each cycle
system.cpu.iq.issued_per_cycle::8               28140      1.42%    100.00% # Number of insts issued each cycle
system.cpu.iq.issued_per_cycle::overflows            0      0.00%    100.00% # Number of insts issued each cycle
system.cpu.iq.issued_per_cycle::min_value            0                       # Number of insts issued each cycle
system.cpu.iq.issued_per_cycle::max_value            8                       # Number of insts issued each cycle
system.cpu.iq.issued_per_cycle::total         1988571                       # Number of insts issued each cycle
system.cpu.iq.rate                           2.259969                       # Inst issue rate
system.cpu.iq.vec_alu_accesses                      0                       # Number of vector alu accesses
system.cpu.iq.vec_inst_queue_reads                  0                       # Number of vector instruction queue reads
system.cpu.iq.vec_inst_queue_wakeup_accesses            0                       # Number of vector instruction queue wakeup accesses
system.cpu.iq.vec_inst_queue_writes                 0                       # Number of vector instruction queue writes
system.cpu.itb.rdAccesses                           0                       # TLB accesses on read requests
system.cpu.itb.rdMisses                             0                       # TLB misses on read requests
system.cpu.itb.wrAccesses                      486885                       # TLB accesses on write requests
system.cpu.itb.wrMisses                           148                       # TLB misses on write requests
system.cpu.memDep0.conflictingLoads            169851                       # Number of conflicting loads.
system.cpu.memDep0.conflictingStores            36189                       # Number of conflicting stores.
system.cpu.memDep0.insertedLoads               804990                       # Number of loads inserted to the mem dependence unit.
system.cpu.memDep0.insertedStores              691117                       # Number of stores inserted to the mem dependence unit.
system.cpu.misc_regfile_reads                 2271726                       # number of misc regfile reads
system.cpu.misc_regfile_writes                      1                       # number of misc regfile writes
system.cpu.numCycles                          2300569                       # number of cpu cycles simulated
system.cpu.numWorkItemsCompleted                    0                       # number of work items this cpu completed
system.cpu.numWorkItemsStarted                      0                       # number of work items this cpu started
system.cpu.rename.BlockCycles                   92442                       # Number of cycles rename is blocking
system.cpu.rename.CommittedMaps               4640237                       # Number of HB maps that are committed
system.cpu.rename.IQFullEvents                  45279                       # Number of times rename has blocked due to IQ full
system.cpu.rename.IdleCycles                   777502                       # Number of cycles rename is idle
system.cpu.rename.LQFullEvents                    553                       # Number of times rename has blocked due to LQ full
system.cpu.rename.ROBFullEvents                   132                       # Number of times rename has blocked due to ROB full
system.cpu.rename.RenameLookups              14488958                       # Number of register rename lookups that rename has made
system.cpu.rename.RenamedInsts                5764254                       # Number of instructions processed by rename
system.cpu.rename.RenamedOperands             5633130                       # Number of destination operands rename has renamed
system.cpu.rename.RunCycles                    857199                       # Number of cycles rename is running
system.cpu.rename.SQFullEvents                 172285                       # Number of times rename has blocked due to SQ full
system.cpu.rename.SquashCycles                  27066                       # Number of cycles rename is squashing
system.cpu.rename.UnblockCycles                233568                       # Number of cycles rename is unblocking
system.cpu.rename.UndoneMaps                   992861                       # Number of HB maps that are undone due to squashing
system.cpu.rename.fp_rename_lookups             18930                       # Number of floating rename lookups
system.cpu.rename.int_rename_lookups          9616181                       # Number of integer rename lookups
system.cpu.rename.serializeStallCycles            794                       # count of cycles rename stalled for serializing inst
system.cpu.rename.serializingInsts                 16                       # count of serializing insts renamed
system.cpu.rename.skidInsts                    364670                       # count of insts added to the skid buffer
system.cpu.rename.tempSerializingInsts             12                       # count of temporary serializing insts renamed
system.cpu.rob.rob_reads                      7144696                       # The number of ROB reads
system.cpu.rob.rob_writes                    11213465                       # The number of ROB writes
system.cpu.timesIdled                            7538                       # Number of times that the entire CPU went into an idle state and unscheduled itself
system.cpu.workload.numSyscalls                    10                       # Number of system calls
system.membus.snoop_filter.hit_multi_requests            4                       # Number of requests hitting in the snoop filter with multiple (>1) holders of the requested data.
system.membus.snoop_filter.hit_multi_snoops            0                       # Number of snoops hitting in the snoop filter with multiple (>1) holders of the requested data.
system.membus.snoop_filter.hit_single_requests         8445                       # Number of requests hitting in the snoop filter with a single holder of the requested data.
system.membus.snoop_filter.hit_single_snoops            0                       # Number of snoops hitting in the snoop filter with a single holder of the requested data.
system.membus.snoop_filter.tot_requests         17887                       # Total number of requests made to the snoop filter.
system.membus.snoop_filter.tot_snoops               0                       # Total number of snoops made to the snoop filter.
system.membus.pwrStateResidencyTicks::UNDEFINED    766089144                       # Cumulative time (in ticks) in various power states
system.membus.trans_dist::ReadResp               8831                       # Transaction distribution
system.membus.trans_dist::WritebackDirty           59                       # Transaction distribution
system.membus.trans_dist::WritebackClean         8360                       # Transaction distribution
system.membus.trans_dist::CleanEvict               26                       # Transaction distribution
system.membus.trans_dist::ReadExReq               611                       # Transaction distribution
system.membus.trans_dist::ReadExResp              611                       # Transaction distribution
system.membus.trans_dist::ReadCleanReq           8607                       # Transaction distribution
system.membus.trans_dist::ReadSharedReq           224                       # Transaction distribution
system.membus.pkt_count_system.cpu.icache.mem_side::system.mem_ctrls.port        25574                       # Packet count per connected master and slave (bytes)
system.membus.pkt_count_system.cpu.icache.mem_side::total        25574                       # Packet count per connected master and slave (bytes)
system.membus.pkt_count_system.cpu.dcache.mem_side::system.mem_ctrls.port         1755                       # Packet count per connected master and slave (bytes)
system.membus.pkt_count_system.cpu.dcache.mem_side::total         1755                       # Packet count per connected master and slave (bytes)
system.membus.pkt_count::total                  27329                       # Packet count per connected master and slave (bytes)
system.membus.pkt_size_system.cpu.icache.mem_side::system.mem_ctrls.port      1085888                       # Cumulative packet size per connected master and slave (bytes)
system.membus.pkt_size_system.cpu.icache.mem_side::total      1085888                       # Cumulative packet size per connected master and slave (bytes)
system.membus.pkt_size_system.cpu.dcache.mem_side::system.mem_ctrls.port        57216                       # Cumulative packet size per connected master and slave (bytes)
system.membus.pkt_size_system.cpu.dcache.mem_side::total        57216                       # Cumulative packet size per connected master and slave (bytes)
system.membus.pkt_size::total                 1143104                       # Cumulative packet size per connected master and slave (bytes)
system.membus.snoops                                0                       # Total snoops (count)
system.membus.snoopTraffic                          0                       # Total snoop traffic (bytes)
system.membus.snoop_fanout::samples              9442                       # Request fanout histogram
system.membus.snoop_fanout::mean             0.000424                       # Request fanout histogram
system.membus.snoop_fanout::stdev            0.020579                       # Request fanout histogram
system.membus.snoop_fanout::underflows              0      0.00%      0.00% # Request fanout histogram
system.membus.snoop_fanout::0                    9438     99.96%     99.96% # Request fanout histogram
system.membus.snoop_fanout::1                       4      0.04%    100.00% # Request fanout histogram
system.membus.snoop_fanout::2                       0      0.00%    100.00% # Request fanout histogram
system.membus.snoop_fanout::3                       0      0.00%    100.00% # Request fanout histogram
system.membus.snoop_fanout::4                       0      0.00%    100.00% # Request fanout histogram
system.membus.snoop_fanout::overflows               0      0.00%    100.00% # Request fanout histogram
system.membus.snoop_fanout::min_value               0                       # Request fanout histogram
system.membus.snoop_fanout::max_value               1                       # Request fanout histogram
system.membus.snoop_fanout::total                9442                       # Request fanout histogram
system.membus.reqLayer2.occupancy            55860189                       # Layer occupancy (ticks)
system.membus.reqLayer2.utilization               7.3                       # Layer utilization (%)
system.membus.respLayer1.occupancy           43247061                       # Layer occupancy (ticks)
system.membus.respLayer1.utilization              5.6                       # Layer utilization (%)
system.membus.respLayer2.occupancy            4467957                       # Layer occupancy (ticks)
system.membus.respLayer2.utilization              0.6                       # Layer utilization (%)
system.voltage_domain.voltage                       1                       # Voltage in Volts
system.clk_domain.clock                          1000                       # Clock period in ticks
system.cpu_voltage_domain.voltage                   1                       # Voltage in Volts
system.mem_ctrls.pwrStateResidencyTicks::UNDEFINED    766089144                       # Cumulative time (in ticks) in various power states
system.mem_ctrls.bytes_read::.cpu.inst         550848                       # Number of bytes read from this memory
system.mem_ctrls.bytes_read::.cpu.data          53440                       # Number of bytes read from this memory
system.mem_ctrls.bytes_read::total             604288                       # Number of bytes read from this memory
system.mem_ctrls.bytes_inst_read::.cpu.inst       550848                       # Number of instructions bytes read from this memory
system.mem_ctrls.bytes_inst_read::total        550848                       # Number of instructions bytes read from this memory
system.mem_ctrls.bytes_written::.writebacks         3776                       # Number of bytes written to this memory
system.mem_ctrls.bytes_written::total            3776                       # Number of bytes written to this memory
system.mem_ctrls.num_reads::.cpu.inst            8607                       # Number of read requests responded to by this memory
system.mem_ctrls.num_reads::.cpu.data             835                       # Number of read requests responded to by this memory
system.mem_ctrls.num_reads::total                9442                       # Number of read requests responded to by this memory
system.mem_ctrls.num_writes::.writebacks           59                       # Number of write requests responded to by this memory
system.mem_ctrls.num_writes::total                 59                       # Number of write requests responded to by this memory
system.mem_ctrls.bw_read::.cpu.inst         719039037                       # Total read bandwidth from this memory (bytes/s)
system.mem_ctrls.bw_read::.cpu.data          69756895                       # Total read bandwidth from this memory (bytes/s)
system.mem_ctrls.bw_read::total             788795932                       # Total read bandwidth from this memory (bytes/s)
system.mem_ctrls.bw_inst_read::.cpu.inst    719039037                       # Instruction read bandwidth from this memory (bytes/s)
system.mem_ctrls.bw_inst_read::total        719039037                       # Instruction read bandwidth from this memory (bytes/s)
system.mem_ctrls.bw_write::.writebacks        4928930                       # Write bandwidth from this memory (bytes/s)
system.mem_ctrls.bw_write::total              4928930                       # Write bandwidth from this memory (bytes/s)
system.mem_ctrls.bw_total::.writebacks        4928930                       # Total bandwidth to/from this memory (bytes/s)
system.mem_ctrls.bw_total::.cpu.inst        719039037                       # Total bandwidth to/from this memory (bytes/s)
system.mem_ctrls.bw_total::.cpu.data         69756895                       # Total bandwidth to/from this memory (bytes/s)
system.mem_ctrls.bw_total::total            793724862                       # Total bandwidth to/from this memory (bytes/s)
system.mem_ctrls.avgPriority_.writebacks::samples       615.00                       # Average QoS priority value for accepted requests
system.mem_ctrls.avgPriority_.cpu.inst::samples       671.00                       # Average QoS priority value for accepted requests
system.mem_ctrls.avgPriority_.cpu.data::samples       834.00                       # Average QoS priority value for accepted requests
system.mem_ctrls.priorityMinLatency      0.000000018750                       # per QoS priority minimum request to response latency (s)
system.mem_ctrls.priorityMaxLatency      0.000793004734                       # per QoS priority maximum request to response latency (s)
system.mem_ctrls.numReadWriteTurnArounds           35                       # Number of turnarounds from READ to WRITE
system.mem_ctrls.numWriteReadTurnArounds           35                       # Number of turnarounds from WRITE to READ
system.mem_ctrls.numStayReadState               11524                       # Number of times bus staying in READ state
system.mem_ctrls.numStayWriteState                555                       # Number of times bus staying in WRITE state
system.mem_ctrls.readReqs                        9442                       # Number of read requests accepted
system.mem_ctrls.writeReqs                       8417                       # Number of write requests accepted
system.mem_ctrls.readBursts                      9442                       # Number of DRAM read bursts, including those serviced by the write queue
system.mem_ctrls.writeBursts                     8417                       # Number of DRAM write bursts, including those merged in the write queue
system.mem_ctrls.servicedByWrQ                   7937                       # Number of DRAM read bursts serviced by the write queue
system.mem_ctrls.mergedWrBursts                  7802                       # Number of DRAM write bursts merged with an existing one
system.mem_ctrls.neitherReadNorWriteReqs            0                       # Number of requests that are neither read nor write
system.mem_ctrls.perBankRdBursts::0               244                       # Per bank write bursts
system.mem_ctrls.perBankRdBursts::1               163                       # Per bank write bursts
system.mem_ctrls.perBankRdBursts::2                36                       # Per bank write bursts
system.mem_ctrls.perBankRdBursts::3                10                       # Per bank write bursts
system.mem_ctrls.perBankRdBursts::4                22                       # Per bank write bursts
system.mem_ctrls.perBankRdBursts::5                51                       # Per bank write bursts
system.mem_ctrls.perBankRdBursts::6                19                       # Per bank write bursts
system.mem_ctrls.perBankRdBursts::7                56                       # Per bank write bursts
system.mem_ctrls.perBankRdBursts::8                14                       # Per bank write bursts
system.mem_ctrls.perBankRdBursts::9                55                       # Per bank write bursts
system.mem_ctrls.perBankRdBursts::10               82                       # Per bank write bursts
system.mem_ctrls.perBankRdBursts::11               91                       # Per bank write bursts
system.mem_ctrls.perBankRdBursts::12               57                       # Per bank write bursts
system.mem_ctrls.perBankRdBursts::13              211                       # Per bank write bursts
system.mem_ctrls.perBankRdBursts::14              233                       # Per bank write bursts
system.mem_ctrls.perBankRdBursts::15              161                       # Per bank write bursts
system.mem_ctrls.perBankWrBursts::0                53                       # Per bank write bursts
system.mem_ctrls.perBankWrBursts::1               123                       # Per bank write bursts
system.mem_ctrls.perBankWrBursts::2                41                       # Per bank write bursts
system.mem_ctrls.perBankWrBursts::3                 6                       # Per bank write bursts
system.mem_ctrls.perBankWrBursts::4                15                       # Per bank write bursts
system.mem_ctrls.perBankWrBursts::5                47                       # Per bank write bursts
system.mem_ctrls.perBankWrBursts::6                17                       # Per bank write bursts
system.mem_ctrls.perBankWrBursts::7                39                       # Per bank write bursts
system.mem_ctrls.perBankWrBursts::8                12                       # Per bank write bursts
system.mem_ctrls.perBankWrBursts::9                44                       # Per bank write bursts
system.mem_ctrls.perBankWrBursts::10               45                       # Per bank write bursts
system.mem_ctrls.perBankWrBursts::11               45                       # Per bank write bursts
system.mem_ctrls.perBankWrBursts::12               44                       # Per bank write bursts
system.mem_ctrls.perBankWrBursts::13               10                       # Per bank write bursts
system.mem_ctrls.perBankWrBursts::14               36                       # Per bank write bursts
system.mem_ctrls.perBankWrBursts::15               13                       # Per bank write bursts
system.mem_ctrls.avgRdQLen                       1.05                       # Average read queue length when enqueuing
system.mem_ctrls.avgWrQLen                      27.75                       # Average write queue length when enqueuing
system.mem_ctrls.totQLat                     18068484                       # Total ticks spent queuing
system.mem_ctrls.totBusLat                    7525000                       # Total ticks spent in databus transfers
system.mem_ctrls.totMemAccLat                46287234                       # Total ticks spent from burst creation until serviced by the DRAM
system.mem_ctrls.avgQLat                     12005.64                       # Average queueing delay per DRAM burst
system.mem_ctrls.avgBusLat                    5000.00                       # Average bus latency per DRAM burst
system.mem_ctrls.avgMemAccLat                30755.64                       # Average memory access latency per DRAM burst
system.mem_ctrls.numRdRetry                         0                       # Number of times read queue was full causing retry
system.mem_ctrls.numWrRetry                         0                       # Number of times write queue was full causing retry
system.mem_ctrls.readRowHits                     1092                       # Number of row buffer hits during reads
system.mem_ctrls.writeRowHits                     455                       # Number of row buffer hits during writes
system.mem_ctrls.readRowHitRate                 72.56                       # Row buffer hit rate for reads
system.mem_ctrls.writeRowHitRate                73.98                       # Row buffer hit rate for writes
system.mem_ctrls.readPktSize::0                     0                       # Read request sizes (log2)
system.mem_ctrls.readPktSize::1                     0                       # Read request sizes (log2)
system.mem_ctrls.readPktSize::2                     0                       # Read request sizes (log2)
system.mem_ctrls.readPktSize::3                     0                       # Read request sizes (log2)
system.mem_ctrls.readPktSize::4                     0                       # Read request sizes (log2)
system.mem_ctrls.readPktSize::5                     0                       # Read request sizes (log2)
system.mem_ctrls.readPktSize::6                  9442                       # Read request sizes (log2)
system.mem_ctrls.writePktSize::0                    0                       # Write request sizes (log2)
system.mem_ctrls.writePktSize::1                    0                       # Write request sizes (log2)
system.mem_ctrls.writePktSize::2                    0                       # Write request sizes (log2)
system.mem_ctrls.writePktSize::3                    0                       # Write request sizes (log2)
system.mem_ctrls.writePktSize::4                    0                       # Write request sizes (log2)
system.mem_ctrls.writePktSize::5                    0                       # Write request sizes (log2)
system.mem_ctrls.writePktSize::6                 8417                       # Write request sizes (log2)
system.mem_ctrls.rdQLenPdf::0                    1145                       # What read queue length does an incoming req see
system.mem_ctrls.rdQLenPdf::1                     265                       # What read queue length does an incoming req see
system.mem_ctrls.rdQLenPdf::2                      71                       # What read queue length does an incoming req see
system.mem_ctrls.rdQLenPdf::3                      21                       # What read queue length does an incoming req see
system.mem_ctrls.rdQLenPdf::4                       3                       # What read queue length does an incoming req see
system.mem_ctrls.rdQLenPdf::5                       0                       # What read queue length does an incoming req see
system.mem_ctrls.rdQLenPdf::6                       0                       # What read queue length does an incoming req see
system.mem_ctrls.rdQLenPdf::7                       0                       # What read queue length does an incoming req see
system.mem_ctrls.rdQLenPdf::8                       0                       # What read queue length does an incoming req see
system.mem_ctrls.rdQLenPdf::9                       0                       # What read queue length does an incoming req see
system.mem_ctrls.rdQLenPdf::10                      0                       # What read queue length does an incoming req see
system.mem_ctrls.rdQLenPdf::11                      0                       # What read queue length does an incoming req see
system.mem_ctrls.rdQLenPdf::12                      0                       # What read queue length does an incoming req see
system.mem_ctrls.rdQLenPdf::13                      0                       # What read queue length does an incoming req see
system.mem_ctrls.rdQLenPdf::14                      0                       # What read queue length does an incoming req see
system.mem_ctrls.rdQLenPdf::15                      0                       # What read queue length does an incoming req see
system.mem_ctrls.rdQLenPdf::16                      0                       # What read queue length does an incoming req see
system.mem_ctrls.rdQLenPdf::17                      0                       # What read queue length does an incoming req see
system.mem_ctrls.rdQLenPdf::18                      0                       # What read queue length does an incoming req see
system.mem_ctrls.rdQLenPdf::19                      0                       # What read queue length does an incoming req see
system.mem_ctrls.rdQLenPdf::20                      0                       # What read queue length does an incoming req see
system.mem_ctrls.rdQLenPdf::21                      0                       # What read queue length does an incoming req see
system.mem_ctrls.rdQLenPdf::22                      0                       # What read queue length does an incoming req see
system.mem_ctrls.rdQLenPdf::23                      0                       # What read queue length does an incoming req see
system.mem_ctrls.rdQLenPdf::24                      0                       # What read queue length does an incoming req see
system.mem_ctrls.rdQLenPdf::25                      0                       # What read queue length does an incoming req see
system.mem_ctrls.rdQLenPdf::26                      0                       # What read queue length does an incoming req see
system.mem_ctrls.rdQLenPdf::27                      0                       # What read queue length does an incoming req see
system.mem_ctrls.rdQLenPdf::28                      0                       # What read queue length does an incoming req see
system.mem_ctrls.rdQLenPdf::29                      0                       # What read queue length does an incoming req see
system.mem_ctrls.rdQLenPdf::30                      0                       # What read queue length does an incoming req see
system.mem_ctrls.rdQLenPdf::31                      0                       # What read queue length does an incoming req see
system.mem_ctrls.wrQLenPdf::0                       1                       # What write queue length does an incoming req see
system.mem_ctrls.wrQLenPdf::1                       1                       # What write queue length does an incoming req see
system.mem_ctrls.wrQLenPdf::2                       1                       # What write queue length does an incoming req see
system.mem_ctrls.wrQLenPdf::3                       1                       # What write queue length does an incoming req see
system.mem_ctrls.wrQLenPdf::4                       1                       # What write queue length does an incoming req see
system.mem_ctrls.wrQLenPdf::5                       1                       # What write queue length does an incoming req see
system.mem_ctrls.wrQLenPdf::6                       1                       # What write queue length does an incoming req see
system.mem_ctrls.wrQLenPdf::7                       1                       # What write queue length does an incoming req see
system.mem_ctrls.wrQLenPdf::8                       1                       # What write queue length does an incoming req see
system.mem_ctrls.wrQLenPdf::9                       1                       # What write queue length does an incoming req see
system.mem_ctrls.wrQLenPdf::10                      1                       # What write queue length does an incoming req see
system.mem_ctrls.wrQLenPdf::11                      1                       # What write queue length does an incoming req see
system.mem_ctrls.wrQLenPdf::12                      1                       # What write queue length does an incoming req see
system.mem_ctrls.wrQLenPdf::13                      1                       # What write queue length does an incoming req see
system.mem_ctrls.wrQLenPdf::14                      1                       # What write queue length does an incoming req see
system.mem_ctrls.wrQLenPdf::15                     13                       # What write queue length does an incoming req see
system.mem_ctrls.wrQLenPdf::16                     13                       # What write queue length does an incoming req see
system.mem_ctrls.wrQLenPdf::17                     26                       # What write queue length does an incoming req see
system.mem_ctrls.wrQLenPdf::18                     36                       # What write queue length does an incoming req see
system.mem_ctrls.wrQLenPdf::19                     36                       # What write queue length does an incoming req see
system.mem_ctrls.wrQLenPdf::20                     38                       # What write queue length does an incoming req see
system.mem_ctrls.wrQLenPdf::21                     37                       # What write queue length does an incoming req see
system.mem_ctrls.wrQLenPdf::22                     39                       # What write queue length does an incoming req see
system.mem_ctrls.wrQLenPdf::23                     37                       # What write queue length does an incoming req see
system.mem_ctrls.wrQLenPdf::24                     39                       # What write queue length does an incoming req see
system.mem_ctrls.wrQLenPdf::25                     36                       # What write queue length does an incoming req see
system.mem_ctrls.wrQLenPdf::26                     39                       # What write queue length does an incoming req see
system.mem_ctrls.wrQLenPdf::27                     36                       # What write queue length does an incoming req see
system.mem_ctrls.wrQLenPdf::28                     35                       # What write queue length does an incoming req see
system.mem_ctrls.wrQLenPdf::29                     35                       # What write queue length does an incoming req see
system.mem_ctrls.wrQLenPdf::30                     35                       # What write queue length does an incoming req see
system.mem_ctrls.wrQLenPdf::31                     35                       # What write queue length does an incoming req see
system.mem_ctrls.wrQLenPdf::32                     35                       # What write queue length does an incoming req see
system.mem_ctrls.wrQLenPdf::33                      0                       # What write queue length does an incoming req see
system.mem_ctrls.wrQLenPdf::34                      0                       # What write queue length does an incoming req see
system.mem_ctrls.wrQLenPdf::35                      0                       # What write queue length does an incoming req see
system.mem_ctrls.wrQLenPdf::36                      0                       # What write queue length does an incoming req see
system.mem_ctrls.wrQLenPdf::37                      0                       # What write queue length does an incoming req see
system.mem_ctrls.wrQLenPdf::38                      0                       # What write queue length does an incoming req see
system.mem_ctrls.wrQLenPdf::39                      0                       # What write queue length does an incoming req see
system.mem_ctrls.wrQLenPdf::40                      0                       # What write queue length does an incoming req see
system.mem_ctrls.wrQLenPdf::41                      0                       # What write queue length does an incoming req see
system.mem_ctrls.wrQLenPdf::42                      0                       # What write queue length does an incoming req see
system.mem_ctrls.wrQLenPdf::43                      0                       # What write queue length does an incoming req see
system.mem_ctrls.wrQLenPdf::44                      0                       # What write queue length does an incoming req see
system.mem_ctrls.wrQLenPdf::45                      0                       # What write queue length does an incoming req see
system.mem_ctrls.wrQLenPdf::46                      0                       # What write queue length does an incoming req see
system.mem_ctrls.wrQLenPdf::47                      0                       # What write queue length does an incoming req see
system.mem_ctrls.wrQLenPdf::48                      0                       # What write queue length does an incoming req see
system.mem_ctrls.wrQLenPdf::49                      0                       # What write queue length does an incoming req see
system.mem_ctrls.wrQLenPdf::50                      0                       # What write queue length does an incoming req see
system.mem_ctrls.wrQLenPdf::51                      0                       # What write queue length does an incoming req see
system.mem_ctrls.wrQLenPdf::52                      0                       # What write queue length does an incoming req see
system.mem_ctrls.wrQLenPdf::53                      0                       # What write queue length does an incoming req see
system.mem_ctrls.wrQLenPdf::54                      0                       # What write queue length does an incoming req see
system.mem_ctrls.wrQLenPdf::55                      0                       # What write queue length does an incoming req see
system.mem_ctrls.wrQLenPdf::56                      0                       # What write queue length does an incoming req see
system.mem_ctrls.wrQLenPdf::57                      0                       # What write queue length does an incoming req see
system.mem_ctrls.wrQLenPdf::58                      0                       # What write queue length does an incoming req see
system.mem_ctrls.wrQLenPdf::59                      0                       # What write queue length does an incoming req see
system.mem_ctrls.wrQLenPdf::60                      0                       # What write queue length does an incoming req see
system.mem_ctrls.wrQLenPdf::61                      0                       # What write queue length does an incoming req see
system.mem_ctrls.wrQLenPdf::62                      0                       # What write queue length does an incoming req see
system.mem_ctrls.wrQLenPdf::63                      0                       # What write queue length does an incoming req see
system.mem_ctrls.bytesPerActivate::samples          546                       # Bytes accessed per row activation
system.mem_ctrls.bytesPerActivate::mean    245.216117                       # Bytes accessed per row activation
system.mem_ctrls.bytesPerActivate::gmean   171.527033                       # Bytes accessed per row activation
system.mem_ctrls.bytesPerActivate::stdev   240.850818                       # Bytes accessed per row activation
system.mem_ctrls.bytesPerActivate::0-127          152     27.84%     27.84% # Bytes accessed per row activation
system.mem_ctrls.bytesPerActivate::128-255          208     38.10%     65.93% # Bytes accessed per row activation
system.mem_ctrls.bytesPerActivate::256-383           92     16.85%     82.78% # Bytes accessed per row activation
system.mem_ctrls.bytesPerActivate::384-511           29      5.31%     88.10% # Bytes accessed per row activation
system.mem_ctrls.bytesPerActivate::512-639           11      2.01%     90.11% # Bytes accessed per row activation
system.mem_ctrls.bytesPerActivate::640-767           16      2.93%     93.04% # Bytes accessed per row activation
system.mem_ctrls.bytesPerActivate::768-895            8      1.47%     94.51% # Bytes accessed per row activation
system.mem_ctrls.bytesPerActivate::896-1023            6      1.10%     95.60% # Bytes accessed per row activation
system.mem_ctrls.bytesPerActivate::1024-1151           24      4.40%    100.00% # Bytes accessed per row activation
system.mem_ctrls.bytesPerActivate::total          546                       # Bytes accessed per row activation
system.mem_ctrls.rdPerTurnAround::samples           35                       # Reads before turning the bus around for writes
system.mem_ctrls.rdPerTurnAround::mean      41.771429                       # Reads before turning the bus around for writes
system.mem_ctrls.rdPerTurnAround::gmean     27.902123                       # Reads before turning the bus around for writes
system.mem_ctrls.rdPerTurnAround::stdev     56.507202                       # Reads before turning the bus around for writes
system.mem_ctrls.rdPerTurnAround::0-15              7     20.00%     20.00% # Reads before turning the bus around for writes
system.mem_ctrls.rdPerTurnAround::16-31            14     40.00%     60.00% # Reads before turning the bus around for writes
system.mem_ctrls.rdPerTurnAround::32-47             9     25.71%     85.71% # Reads before turning the bus around for writes
system.mem_ctrls.rdPerTurnAround::64-79             1      2.86%     88.57% # Reads before turning the bus around for writes
system.mem_ctrls.rdPerTurnAround::80-95             1      2.86%     91.43% # Reads before turning the bus around for writes
system.mem_ctrls.rdPerTurnAround::96-111            1      2.86%     94.29% # Reads before turning the bus around for writes
system.mem_ctrls.rdPerTurnAround::192-207            1      2.86%     97.14% # Reads before turning the bus around for writes
system.mem_ctrls.rdPerTurnAround::288-303            1      2.86%    100.00% # Reads before turning the bus around for writes
system.mem_ctrls.rdPerTurnAround::total            35                       # Reads before turning the bus around for writes
system.mem_ctrls.wrPerTurnAround::samples           35                       # Writes before turning the bus around for reads
system.mem_ctrls.wrPerTurnAround::mean      16.857143                       # Writes before turning the bus around for reads
system.mem_ctrls.wrPerTurnAround::gmean     16.813143                       # Writes before turning the bus around for reads
system.mem_ctrls.wrPerTurnAround::stdev      1.263582                       # Writes before turning the bus around for reads
system.mem_ctrls.wrPerTurnAround::16               23     65.71%     65.71% # Writes before turning the bus around for reads
system.mem_ctrls.wrPerTurnAround::18                7     20.00%     85.71% # Writes before turning the bus around for reads
system.mem_ctrls.wrPerTurnAround::19                4     11.43%     97.14% # Writes before turning the bus around for reads
system.mem_ctrls.wrPerTurnAround::20                1      2.86%    100.00% # Writes before turning the bus around for reads
system.mem_ctrls.wrPerTurnAround::total            35                       # Writes before turning the bus around for reads
system.mem_ctrls.bytesReadDRAM                  96320                       # Total number of bytes read from DRAM
system.mem_ctrls.bytesReadWrQ                  507968                       # Total number of bytes read from write queue
system.mem_ctrls.bytesWritten                   37760                       # Total number of bytes written to DRAM
system.mem_ctrls.bytesReadSys                  604288                       # Total read bytes from the system interface side
system.mem_ctrls.bytesWrittenSys               538688                       # Total written bytes from the system interface side
system.mem_ctrls.avgRdBW                       125.73                       # Average DRAM read bandwidth in MiByte/s
system.mem_ctrls.avgWrBW                        49.29                       # Average achieved write bandwidth in MiByte/s
system.mem_ctrls.avgRdBWSys                    788.80                       # Average system read bandwidth in MiByte/s
system.mem_ctrls.avgWrBWSys                    703.17                       # Average system write bandwidth in MiByte/s
system.mem_ctrls.peakBW                      12800.00                       # Theoretical peak bandwidth in MiByte/s
system.mem_ctrls.busUtil                         1.37                       # Data bus utilization in percentage
system.mem_ctrls.busUtilRead                     0.98                       # Data bus utilization in percentage for reads
system.mem_ctrls.busUtilWrite                    0.39                       # Data bus utilization in percentage for writes
system.mem_ctrls.totGap                     766086334                       # Total gap between requests
system.mem_ctrls.avgGap                      42896.37                       # Average gap between requests
[...]
system.cpu.icache.tags.pwrStateResidencyTicks::UNDEFINED     60991947                       # Cumulative time (in ticks) in various power states
system.cpu.icache.tags.tagsinuse           253.837671                       # Cycle average of tags in use
system.cpu.icache.tags.total_refs              976189                       # Total number of references to valid blocks.
system.cpu.icache.tags.sampled_refs               511                       # Sample count of references to valid blocks.
system.cpu.icache.tags.avg_refs           1910.350294                       # Average number of references to valid blocks.
system.cpu.icache.tags.warmup_cycle                 0                       # Cycle when the warmup percentage was hit.
system.cpu.icache.tags.occ_blocks::.cpu.inst   253.837671                       # Average occupied blocks per requestor
system.cpu.icache.tags.occ_percent::.cpu.inst     0.991553                       # Average percentage of cache occupancy
system.cpu.icache.tags.occ_percent::total     0.991553                       # Average percentage of cache occupancy
system.cpu.icache.tags.occ_task_id_blocks::1024          256                       # Occupied blocks per task id
system.cpu.icache.tags.age_task_id_blocks_1024::0           58                       # Occupied blocks per task id
system.cpu.icache.tags.age_task_id_blocks_1024::1          120                       # Occupied blocks per task id
system.cpu.icache.tags.age_task_id_blocks_1024::2           21                       # Occupied blocks per task id
system.cpu.icache.tags.age_task_id_blocks_1024::3           57                       # Occupied blocks per task id
system.cpu.icache.tags.occ_task_id_percent::1024            1                       # Percentage of cache occupancy per task id
system.cpu.icache.tags.tag_accesses             89566                       # Number of tag accesses
system.cpu.icache.tags.data_accesses            89566                       # Number of data accesses
system.cpu.dtb.walker.pwrStateResidencyTicks::UNDEFINED     60991947                       # Cumulative time (in ticks) in various power states
system.cpu.interrupts.clk_domain.clock           5328                       # Clock period in ticks
system.cpu.itb_walker_cache.pwrStateResidencyTicks::UNDEFINED     60991947                       # Cumulative time (in ticks) in various power states
system.cpu.itb_walker_cache.blocked_cycles::no_mshrs            0                       # number of cycles access was blocked
system.cpu.itb_walker_cache.blocked_cycles::no_targets            0                       # number of cycles access was blocked
system.cpu.itb_walker_cache.blocked::no_mshrs            0                       # number of cycles access was blocked
system.cpu.itb_walker_cache.blocked::no_targets            0                       # number of cycles access was blocked
system.cpu.itb_walker_cache.avg_blocked_cycles::no_mshrs          nan                       # average number of cycles each access was blocked
system.cpu.itb_walker_cache.avg_blocked_cycles::no_targets          nan                       # average number of cycles each access was blocked
system.cpu.itb_walker_cache.replacements            0                       # number of replacements
system.cpu.itb_walker_cache.tags.pwrStateResidencyTicks::UNDEFINED     60991947                       # Cumulative time (in ticks) in various power states
system.cpu.itb_walker_cache.tags.tagsinuse            0                       # Cycle average of tags in use
system.cpu.itb_walker_cache.tags.total_refs            0                       # Total number of references to valid blocks.
system.cpu.itb_walker_cache.tags.sampled_refs            0                       # Sample count of references to valid blocks.
system.cpu.itb_walker_cache.tags.avg_refs          nan                       # Average number of references to valid blocks.
system.cpu.itb_walker_cache.tags.warmup_cycle            0                       # Cycle when the warmup percentage was hit.
system.cpu.itb_walker_cache.tags.tag_accesses            0                       # Number of tag accesses
system.cpu.itb_walker_cache.tags.data_accesses            0                       # Number of data accesses
system.cpu.itb.walker.pwrStateResidencyTicks::UNDEFINED     60991947                       # Cumulative time (in ticks) in various power states
system.cpu.dtb_walker_cache.pwrStateResidencyTicks::UNDEFINED     60991947                       # Cumulative time (in ticks) in various power states
system.cpu.dtb_walker_cache.blocked_cycles::no_mshrs            0                       # number of cycles access was blocked
system.cpu.dtb_walker_cache.blocked_cycles::no_targets            0                       # number of cycles access was blocked
system.cpu.dtb_walker_cache.blocked::no_mshrs            0                       # number of cycles access was blocked
system.cpu.dtb_walker_cache.blocked::no_targets            0                       # number of cycles access was blocked
system.cpu.dtb_walker_cache.avg_blocked_cycles::no_mshrs          nan                       # average number of cycles each access was blocked
system.cpu.dtb_walker_cache.avg_blocked_cycles::no_targets          nan                       # average number of cycles each access was blocked
system.cpu.dtb_walker_cache.replacements            0                       # number of replacements
system.cpu.dtb_walker_cache.tags.pwrStateResidencyTicks::UNDEFINED     60991947                       # Cumulative time (in ticks) in various power states
system.cpu.dtb_walker_cache.tags.tagsinuse            0                       # Cycle average of tags in use
system.cpu.dtb_walker_cache.tags.total_refs            0                       # Total number of references to valid blocks.
system.cpu.dtb_walker_cache.tags.sampled_refs            0                       # Sample count of references to valid blocks.
system.cpu.dtb_walker_cache.tags.avg_refs          nan                       # Average number of references to valid blocks.
system.cpu.dtb_walker_cache.tags.warmup_cycle            0                       # Cycle when the warmup percentage was hit.
system.cpu.dtb_walker_cache.tags.tag_accesses            0                       # Number of tag accesses
system.cpu.dtb_walker_cache.tags.data_accesses            0                       # Number of data accesses
system.cpu.dcache.pwrStateResidencyTicks::UNDEFINED     60991947                       # Cumulative time (in ticks) in various power states
system.cpu.dcache.demand_hits::.cpu.data        91428                       # number of demand (read+write) hits
system.cpu.dcache.demand_hits::total            91428                       # number of demand (read+write) hits
system.cpu.dcache.overall_hits::.cpu.data        91428                       # number of overall hits
system.cpu.dcache.overall_hits::total           91428                       # number of overall hits
system.cpu.dcache.demand_misses::.cpu.data           57                       # number of demand (read+write) misses
system.cpu.dcache.demand_misses::total             57                       # number of demand (read+write) misses
system.cpu.dcache.overall_misses::.cpu.data           57                       # number of overall misses
system.cpu.dcache.overall_misses::total            57                       # number of overall misses
system.cpu.dcache.demand_miss_latency::.cpu.data      3750286                       # number of demand (read+write) miss cycles
system.cpu.dcache.demand_miss_latency::total      3750286                       # number of demand (read+write) miss cycles
system.cpu.dcache.overall_miss_latency::.cpu.data      3750286                       # number of overall miss cycles
system.cpu.dcache.overall_miss_latency::total      3750286                       # number of overall miss cycles
system.cpu.dcache.demand_accesses::.cpu.data        91485                       # number of demand (read+write) accesses
system.cpu.dcache.demand_accesses::total        91485                       # number of demand (read+write) accesses
system.cpu.dcache.overall_accesses::.cpu.data        91485                       # number of overall (read+write) accesses
system.cpu.dcache.overall_accesses::total        91485                       # number of overall (read+write) accesses
system.cpu.dcache.demand_miss_rate::.cpu.data     0.000623                       # miss rate for demand accesses
system.cpu.dcache.demand_miss_rate::total     0.000623                       # miss rate for demand accesses
system.cpu.dcache.overall_miss_rate::.cpu.data     0.000623                       # miss rate for overall accesses
system.cpu.dcache.overall_miss_rate::total     0.000623                       # miss rate for overall accesses
system.cpu.dcache.demand_avg_miss_latency::.cpu.data 65794.491228                       # average overall miss latency
system.cpu.dcache.demand_avg_miss_latency::total 65794.491228                       # average overall miss latency
system.cpu.dcache.overall_avg_miss_latency::.cpu.data 65794.491228                       # average overall miss latency
system.cpu.dcache.overall_avg_miss_latency::total 65794.491228                       # average overall miss latency
system.cpu.dcache.blocked_cycles::no_mshrs          135                       # number of cycles access was blocked
system.cpu.dcache.blocked_cycles::no_targets            0                       # number of cycles access was blocked
system.cpu.dcache.blocked::no_mshrs                 1                       # number of cycles access was blocked
system.cpu.dcache.blocked::no_targets               0                       # number of cycles access was blocked
system.cpu.dcache.avg_blocked_cycles::no_mshrs          135                       # average number of cycles each access was blocked
system.cpu.dcache.avg_blocked_cycles::no_targets          nan                       # average number of cycles each access was blocked
system.cpu.dcache.writebacks::.writebacks            5                       # number of writebacks
system.cpu.dcache.writebacks::total                 5                       # number of writebacks
system.cpu.dcache.demand_mshr_hits::.cpu.data           16                       # number of demand (read+write) MSHR hits
system.cpu.dcache.demand_mshr_hits::total           16                       # number of demand (read+write) MSHR hits
system.cpu.dcache.overall_mshr_hits::.cpu.data           16                       # number of overall MSHR hits
system.cpu.dcache.overall_mshr_hits::total           16                       # number of overall MSHR hits
system.cpu.dcache.demand_mshr_misses::.cpu.data           41                       # number of demand (read+write) MSHR misses
system.cpu.dcache.demand_mshr_misses::total           41                       # number of demand (read+write) MSHR misses
system.cpu.dcache.overall_mshr_misses::.cpu.data           41                       # number of overall MSHR misses
system.cpu.dcache.overall_mshr_misses::total           41                       # number of overall MSHR misses
system.cpu.dcache.demand_mshr_miss_latency::.cpu.data      2843049                       # number of demand (read+write) MSHR miss cycles
system.cpu.dcache.demand_mshr_miss_latency::total      2843049                       # number of demand (read+write) MSHR miss cycles
system.cpu.dcache.overall_mshr_miss_latency::.cpu.data      2843049                       # number of overall MSHR miss cycles
system.cpu.dcache.overall_mshr_miss_latency::total      2843049                       # number of overall MSHR miss cycles
system.cpu.dcache.demand_mshr_miss_rate::.cpu.data     0.000448                       # mshr miss rate for demand accesses
system.cpu.dcache.demand_mshr_miss_rate::total     0.000448                       # mshr miss rate for demand accesses
system.cpu.dcache.overall_mshr_miss_rate::.cpu.data     0.000448                       # mshr miss rate for overall accesses
system.cpu.dcache.overall_mshr_miss_rate::total     0.000448                       # mshr miss rate for overall accesses
system.cpu.dcache.demand_avg_mshr_miss_latency::.cpu.data 69342.658537                       # average overall mshr miss latency
system.cpu.dcache.demand_avg_mshr_miss_latency::total 69342.658537                       # average overall mshr miss latency
system.cpu.dcache.overall_avg_mshr_miss_latency::.cpu.data 69342.658537                       # average overall mshr miss latency
system.cpu.dcache.overall_avg_mshr_miss_latency::total 69342.658537                       # average overall mshr miss latency
system.cpu.dcache.replacements                     13                       # number of replacements
system.cpu.dcache.ReadReq_hits::.cpu.data        23166                       # number of ReadReq hits
system.cpu.dcache.ReadReq_hits::total           23166                       # number of ReadReq hits
system.cpu.dcache.ReadReq_misses::.cpu.data           44                       # number of ReadReq misses
system.cpu.dcache.ReadReq_misses::total            44                       # number of ReadReq misses
system.cpu.dcache.ReadReq_miss_latency::.cpu.data      2800566                       # number of ReadReq miss cycles
system.cpu.dcache.ReadReq_miss_latency::total      2800566                       # number of ReadReq miss cycles
system.cpu.dcache.ReadReq_accesses::.cpu.data        23210                       # number of ReadReq accesses(hits+misses)
system.cpu.dcache.ReadReq_accesses::total        23210                       # number of ReadReq accesses(hits+misses)
system.cpu.dcache.ReadReq_miss_rate::.cpu.data     0.001896                       # miss rate for ReadReq accesses
system.cpu.dcache.ReadReq_miss_rate::total     0.001896                       # miss rate for ReadReq accesses
system.cpu.dcache.ReadReq_avg_miss_latency::.cpu.data 63649.227273                       # average ReadReq miss latency
system.cpu.dcache.ReadReq_avg_miss_latency::total 63649.227273                       # average ReadReq miss latency
system.cpu.dcache.ReadReq_mshr_hits::.cpu.data           15                       # number of ReadReq MSHR hits
system.cpu.dcache.ReadReq_mshr_hits::total           15                       # number of ReadReq MSHR hits
system.cpu.dcache.ReadReq_mshr_misses::.cpu.data           29                       # number of ReadReq MSHR misses
system.cpu.dcache.ReadReq_mshr_misses::total           29                       # number of ReadReq MSHR misses
system.cpu.dcache.ReadReq_mshr_miss_latency::.cpu.data      1962938                       # number of ReadReq MSHR miss cycles
system.cpu.dcache.ReadReq_mshr_miss_latency::total      1962938                       # number of ReadReq MSHR miss cycles
system.cpu.dcache.ReadReq_mshr_miss_rate::.cpu.data     0.001249                       # mshr miss rate for ReadReq accesses
system.cpu.dcache.ReadReq_mshr_miss_rate::total     0.001249                       # mshr miss rate for ReadReq accesses
system.cpu.dcache.ReadReq_avg_mshr_miss_latency::.cpu.data 67687.517241                       # average ReadReq mshr miss latency
system.cpu.dcache.ReadReq_avg_mshr_miss_latency::total 67687.517241                       # average ReadReq mshr miss latency
system.cpu.dcache.WriteReq_hits::.cpu.data        68262                       # number of WriteReq hits
system.cpu.dcache.WriteReq_hits::total          68262                       # number of WriteReq hits
system.cpu.dcache.WriteReq_misses::.cpu.data           13                       # number of WriteReq misses
system.cpu.dcache.WriteReq_misses::total           13                       # number of WriteReq misses
system.cpu.dcache.WriteReq_miss_latency::.cpu.data       949720                       # number of WriteReq miss cycles
system.cpu.dcache.WriteReq_miss_latency::total       949720                       # number of WriteReq miss cycles
system.cpu.dcache.WriteReq_accesses::.cpu.data        68275                       # number of WriteReq accesses(hits+misses)
system.cpu.dcache.WriteReq_accesses::total        68275                       # number of WriteReq accesses(hits+misses)
system.cpu.dcache.WriteReq_miss_rate::.cpu.data     0.000190                       # miss rate for WriteReq accesses
system.cpu.dcache.WriteReq_miss_rate::total     0.000190                       # miss rate for WriteReq accesses
system.cpu.dcache.WriteReq_avg_miss_latency::.cpu.data 73055.384615                       # average WriteReq miss latency
system.cpu.dcache.WriteReq_avg_miss_latency::total 73055.384615                       # average WriteReq miss latency
system.cpu.dcache.WriteReq_mshr_hits::.cpu.data            1                       # number of WriteReq MSHR hits
system.cpu.dcache.WriteReq_mshr_hits::total            1                       # number of WriteReq MSHR hits
system.cpu.dcache.WriteReq_mshr_misses::.cpu.data           12                       # number of WriteReq MSHR misses
system.cpu.dcache.WriteReq_mshr_misses::total           12                       # number of WriteReq MSHR misses
system.cpu.dcache.WriteReq_mshr_miss_latency::.cpu.data       880111                       # number of WriteReq MSHR miss cycles
system.cpu.dcache.WriteReq_mshr_miss_latency::total       880111                       # number of WriteReq MSHR miss cycles
system.cpu.dcache.WriteReq_mshr_miss_rate::.cpu.data     0.000176                       # mshr miss rate for WriteReq accesses
system.cpu.dcache.WriteReq_mshr_miss_rate::total     0.000176                       # mshr miss rate for WriteReq accesses
system.cpu.dcache.WriteReq_avg_mshr_miss_latency::.cpu.data 73342.583333                       # average WriteReq mshr miss latency
system.cpu.dcache.WriteReq_avg_mshr_miss_latency::total 73342.583333                       # average WriteReq mshr miss latency
system.cpu.dcache.tags.pwrStateResidencyTicks::UNDEFINED     60991947                       # Cumulative time (in ticks) in various power states
system.cpu.dcache.tags.tagsinuse           759.849759                       # Cycle average of tags in use
system.cpu.dcache.tags.total_refs             1967115                       # Total number of references to valid blocks.
system.cpu.dcache.tags.sampled_refs               791                       # Sample count of references to valid blocks.
system.cpu.dcache.tags.avg_refs           2486.871049                       # Average number of references to valid blocks.
system.cpu.dcache.tags.warmup_cycle                 0                       # Cycle when the warmup percentage was hit.
system.cpu.dcache.tags.occ_blocks::.cpu.data   759.849759                       # Average occupied blocks per requestor
system.cpu.dcache.tags.occ_percent::.cpu.data     0.742041                       # Average percentage of cache occupancy
system.cpu.dcache.tags.occ_percent::total     0.742041                       # Average percentage of cache occupancy
system.cpu.dcache.tags.occ_task_id_blocks::1024          778                       # Occupied blocks per task id
system.cpu.dcache.tags.age_task_id_blocks_1024::0           18                       # Occupied blocks per task id
system.cpu.dcache.tags.age_task_id_blocks_1024::1           23                       # Occupied blocks per task id
system.cpu.dcache.tags.age_task_id_blocks_1024::2          276                       # Occupied blocks per task id
system.cpu.dcache.tags.age_task_id_blocks_1024::3          461                       # Occupied blocks per task id
system.cpu.dcache.tags.occ_task_id_percent::1024     0.759766                       # Percentage of cache occupancy per task id
system.cpu.dcache.tags.tag_accesses            183011                       # Number of tag accesses
system.cpu.dcache.tags.data_accesses           183011                       # Number of data accesses

---------- End Simulation Statistics   ----------
