
---------- Begin Simulation Statistics ----------
final_tick                                  769607289                       # Number of ticks from beginning of simulation (restored from checkpoints and never reset)
host_inst_rate                                  70552                       # Simulator instruction rate (inst/s)
host_mem_usage                                 696324                       # Number of bytes of host memory used
host_op_rate                                   143482                       # Simulator op (including micro ops) rate (op/s)
host_seconds                                    33.36                       # Real time elapsed on the host
host_tick_rate                               23069403                       # Simulator tick rate (ticks/s)
sim_freq                                 1000000000000                       # Frequency of simulated ticks
sim_insts                                     2353640                       # Number of instructions simulated
sim_ops                                       4786641                       # Number of ops (including micro ops) simulated
sim_seconds                                  0.000770                       # Number of seconds simulated
sim_ticks                                   769607289                       # Number of ticks simulated
system.cpu.branchPred.BTBCorrect                    0                       # Number of correct BTB predictions (this stat may not work properly.
system.cpu.branchPred.BTBHitPct              0.000000                       # BTB Hit Percentage
system.cpu.branchPred.BTBHits                       0                       # Number of BTB hits
system.cpu.branchPred.BTBLookups               549605                       # Number of BTB lookups
system.cpu.branchPred.RASInCorrect                  4                       # Number of incorrect RAS predictions.
system.cpu.branchPred.condIncorrect             28912                       # Number of conditional branches incorrect
system.cpu.branchPred.condPredicted            428679                       # Number of conditional branches predicted
system.cpu.branchPred.indirectHits             346707                       # Number of indirect target hits.
system.cpu.branchPred.indirectLookups          549605                       # Number of indirect predictor lookups.
system.cpu.branchPred.indirectMisses           202898                       # Number of indirect misses.
system.cpu.branchPred.lookups                  726468                       # Number of BP lookups
system.cpu.branchPred.usedRAS                  150382                       # Number of times the RAS was used to get a target.
system.cpu.branchPredindirectMispredicted        19024                       # Number of mispredicted indirect branches.
system.cpu.cc_regfile_reads                   1972555                       # number of cc regfile reads
system.cpu.cc_regfile_writes                  1092439                       # number of cc regfile writes
system.cpu.commit.amos                              0                       # Number of atomic instructions committed
system.cpu.commit.branchMispredicts             29021                       # The number of times a branch was mispredicted
system.cpu.commit.branches                     542226                       # Number of branches committed
system.cpu.commit.bw_lim_events                281833                       # number cycles where commit BW limit reached
system.cpu.commit.commitNonSpecStalls              42                       # The number of times commit has been forced to stall to communicate backwards
system.cpu.commit.commitSquashedInsts          807340                       # The number of squashed insts skipped by commit
system.cpu.commit.committedInsts              2353640                       # Number of instructions committed
system.cpu.commit.committedOps                4786641                       # Number of ops (including micro ops) committed
system.cpu.commit.committed_per_cycle::samples      1880146                       # Number of insts commited each cycle
system.cpu.commit.committed_per_cycle::mean     2.545888                       # Number of insts commited each cycle
system.cpu.commit.committed_per_cycle::stdev     2.836245                       # Number of insts commited each cycle
system.cpu.commit.committed_per_cycle::underflows            0      0.00%      0.00% # Number of insts commited each cycle
system.cpu.commit.committed_per_cycle::0       679514     36.14%     36.14% # Number of insts commited each cycle
system.cpu.commit.committed_per_cycle::1       228335     12.14%     48.29% # Number of insts commited each cycle
system.cpu.commit.committed_per_cycle::2       234056     12.45%     60.73% # Number of insts commited each cycle
system.cpu.commit.committed_per_cycle::3       213221     11.34%     72.08% # Number of insts commited each cycle
system.cpu.commit.committed_per_cycle::4       129987      6.91%     78.99% # Number of insts commited each cycle
system.cpu.commit.committed_per_cycle::5        38738      2.06%     81.05% # Number of insts commited each cycle
system.cpu.commit.committed_per_cycle::6        39005      2.07%     83.12% # Number of insts commited each cycle
system.cpu.commit.committed_per_cycle::7        35457      1.89%     85.01% # Number of insts commited each cycle
system.cpu.commit.committed_per_cycle::8       281833     14.99%    100.00% # Number of insts commited each cycle
system.cpu.commit.committed_per_cycle::overflows            0      0.00%    100.00% # Number of insts commited each cycle
system.cpu.commit.committed_per_cycle::min_value            0                       # Number of insts commited each cycle
system.cpu.commit.committed_per_cycle::max_value            8                       # Number of insts commited each cycle
system.cpu.commit.committed_per_cycle::total      1880146                       # Number of insts commited each cycle
system.cpu.commit.fp_insts                      10507                       # Number of committed floating point instructions.
system.cpu.commit.function_calls               117358                       # Number of function calls committed.
system.cpu.commit.int_insts                   4692022                       # Number of committed integer instructions.
system.cpu.commit.loads                        689663                       # Number of loads committed
system.cpu.commit.membars                          20                       # Number of memory barriers committed
system.cpu.commit.op_class_0::No_OpClass        88520      1.85%      1.85% # Class of committed instruction
system.cpu.commit.op_class_0::IntAlu          3382691     70.67%     72.52% # Class of committed instruction
system.cpu.commit.op_class_0::IntMult            5466      0.11%     72.63% # Class of committed instruction
system.cpu.commit.op_class_0::IntDiv               14      0.00%     72.63% # Class of committed instruction
system.cpu.commit.op_class_0::FloatAdd            502      0.01%     72.64% # Class of committed instruction
system.cpu.commit.op_class_0::FloatCmp              0      0.00%     72.64% # Class of committed instruction
system.cpu.commit.op_class_0::FloatCvt              0      0.00%     72.64% # Class of committed instruction
system.cpu.commit.op_class_0::FloatMult             0      0.00%     72.64% # Class of committed instruction
system.cpu.commit.op_class_0::FloatMultAcc            0      0.00%     72.64% # Class of committed instruction
system.cpu.commit.op_class_0::FloatDiv              0      0.00%     72.64% # Class of committed instruction
system.cpu.commit.op_class_0::FloatMisc             0      0.00%     72.64% # Class of committed instruction
system.cpu.commit.op_class_0::FloatSqrt             0      0.00%     72.64% # Class of committed instruction
system.cpu.commit.op_class_0::SimdAdd               6      0.00%     72.64% # Class of committed instruction
system.cpu.commit.op_class_0::SimdAddAcc            0      0.00%     72.64% # Class of committed instruction
system.cpu.commit.op_class_0::SimdAlu              52      0.00%     72.64% # Class of committed instruction
system.cpu.commit.op_class_0::SimdCmp               0      0.00%     72.64% # Class of committed instruction
system.cpu.commit.op_class_0::SimdCvt            1978      0.04%     72.69% # Class of committed instruction
system.cpu.commit.op_class_0::SimdMisc           5479      0.11%     72.80% # Class of committed instruction
system.cpu.commit.op_class_0::SimdMult              0      0.00%     72.80% # Class of committed instruction
system.cpu.commit.op_class_0::SimdMultAcc            0      0.00%     72.80% # Class of committed instruction
system.cpu.commit.op_class_0::SimdShift             7      0.00%     72.80% # Class of committed instruction
system.cpu.commit.op_class_0::SimdShiftAcc            0      0.00%     72.80% # Class of committed instruction
system.cpu.commit.op_class_0::SimdDiv               0      0.00%     72.80% # Class of committed instruction
system.cpu.commit.op_class_0::SimdSqrt              0      0.00%     72.80% # Class of committed instruction
system.cpu.commit.op_class_0::SimdFloatAdd            0      0.00%     72.80% # Class of committed instruction
system.cpu.commit.op_class_0::SimdFloatAlu            0      0.00%     72.80% # Class of committed instruction
system.cpu.commit.op_class_0::SimdFloatCmp            0      0.00%     72.80% # Class of committed instruction
system.cpu.commit.op_class_0::SimdFloatCvt            0      0.00%     72.80% # Class of committed instruction
system.cpu.commit.op_class_0::SimdFloatDiv            0      0.00%     72.80% # Class of committed instruction
system.cpu.commit.op_class_0::SimdFloatMisc            0      0.00%     72.80% # Class of committed instruction
system.cpu.commit.op_class_0::SimdFloatMult            0      0.00%     72.80% # Class of committed instruction
system.cpu.commit.op_class_0::SimdFloatMultAcc            0      0.00%     72.80% # Class of committed instruction
system.cpu.commit.op_class_0::SimdFloatSqrt            0      0.00%     72.80% # Class of committed instruction
system.cpu.commit.op_class_0::SimdReduceAdd            0      0.00%     72.80% # Class of committed instruction
system.cpu.commit.op_class_0::SimdReduceAlu            0      0.00%     72.80% # Class of committed instruction
system.cpu.commit.op_class_0::SimdReduceCmp            0      0.00%     72.80% # Class of committed instruction
system.cpu.commit.op_class_0::SimdFloatReduceAdd            0      0.00%     72.80% # Class of committed instruction
system.cpu.commit.op_class_0::SimdFloatReduceCmp            0      0.00%     72.80% # Class of committed instruction
system.cpu.commit.op_class_0::SimdAes               0      0.00%     72.80% # Class of committed instruction
system.cpu.commit.op_class_0::SimdAesMix            0      0.00%     72.80% # Class of committed instruction
system.cpu.commit.op_class_0::SimdSha1Hash            0      0.00%     72.80% # Class of committed instruction
system.cpu.commit.op_class_0::SimdSha1Hash2            0      0.00%     72.80% # Class of committed instruction
system.cpu.commit.op_class_0::SimdSha256Hash            0      0.00%     72.80% # Class of committed instruction
system.cpu.commit.op_class_0::SimdSha256Hash2            0      0.00%     72.80% # Class of committed instruction
system.cpu.commit.op_class_0::SimdShaSigma2            0      0.00%     72.80% # Class of committed instruction
system.cpu.commit.op_class_0::SimdShaSigma3            0      0.00%     72.80% # Class of committed instruction
system.cpu.commit.op_class_0::SimdPredAlu            0      0.00%     72.80% # Class of committed instruction
system.cpu.commit.op_class_0::MemRead          687693     14.37%     87.17% # Class of committed instruction
system.cpu.commit.op_class_0::MemWrite         612263     12.79%     99.96% # Class of committed instruction
system.cpu.commit.op_class_0::FloatMemRead         1970      0.04%    100.00% # Class of committed instruction
system.cpu.commit.op_class_0::FloatMemWrite            0      0.00%    100.00% # Class of committed instruction
system.cpu.commit.op_class_0::IprAccess             0      0.00%    100.00% # Class of committed instruction
system.cpu.commit.op_class_0::InstPrefetch            0      0.00%    100.00% # Class of committed instruction
system.cpu.commit.op_class_0::total           4786641                       # Class of committed instruction
system.cpu.commit.refs                        1301926                       # Number of memory references committed
system.cpu.commit.swp_count                         0                       # Number of s/w prefetches committed
system.cpu.commit.vec_insts                         0                       # Number of committed Vector instructions.
system.cpu.committedInsts                     2353640                       # Number of Instructions Simulated
system.cpu.committedOps                       4786641                       # Number of Ops (including micro ops) Simulated
system.cpu.cpi                               0.981940                       # CPI: Cycles Per Instruction
system.cpu.cpi_total                         0.981940                       # CPI: Total CPI of All Threads
system.cpu.decode.BlockedCycles                323784                       # Number of cycles decode is blocked
system.cpu.decode.DecodedInsts                5961210                       # Number of instructions handled by decode
system.cpu.decode.IdleCycles                   730495                       # Number of cycles decode is idle
system.cpu.decode.RunCycles                    820741                       # Number of cycles decode is running
system.cpu.decode.SquashCycles                  29276                       # Number of cycles decode is squashing
system.cpu.decode.UnblockCycles                 94196                       # Number of cycles decode is unblocking
system.cpu.dtb.rdAccesses                      742590                       # TLB accesses on read requests
system.cpu.dtb.rdMisses                          1469                       # TLB misses on read requests
system.cpu.dtb.wrAccesses                      641501                       # TLB accesses on write requests
system.cpu.dtb.wrMisses                            35                       # TLB misses on write requests
system.cpu.fetch.Branches                      726468                       # Number of branches that fetch encountered
system.cpu.fetch.CacheLines                    490222                       # Number of cache lines fetched
system.cpu.fetch.Cycles                       1169767                       # Number of cycles fetch has run and was not squashing or blocked
system.cpu.fetch.IcacheSquashes                  7709                       # Number of outstanding Icache misses that were squashed
system.cpu.fetch.IcacheWaitRetryStallCycles           15                       # Number of stall cycles due to full MSHR
system.cpu.fetch.Insts                        2965382                       # Number of instructions fetch has processed
system.cpu.fetch.MiscStallCycles                  116                       # Number of cycles fetch has spent waiting on interrupts, or bad addresses, or out of MSHRs
system.cpu.fetch.PendingQuiesceStallCycles            7                       # Number of stall cycles due to pending quiesce instructions
system.cpu.fetch.PendingTrapStallCycles           673                       # Number of stall cycles due to pending traps
system.cpu.fetch.SquashCycles                   58552                       # Number of cycles fetch has spent squashing
system.cpu.fetch.branchRate                  0.314334                       # Number of branch fetches per cycle
system.cpu.fetch.icacheStallCycles             798638                       # Number of cycles fetch is stalled on an Icache miss
system.cpu.fetch.predictedBranches             497089                       # Number of branches that fetch has predicted taken
system.cpu.fetch.rate                        1.283085                       # Number of inst fetches per cycle
system.cpu.fetch.rateDist::samples            1998492                       # Number of instructions fetched each cycle (Total)
system.cpu.fetch.rateDist::mean              3.113007                       # Number of instructions fetched each cycle (Total)
system.cpu.fetch.rateDist::stdev             3.525581                       # Number of instructions fetched each cycle (Total)
system.cpu.fetch.rateDist::underflows               0      0.00%      0.00% # Number of instructions fetched each cycle (Total)
system.cpu.fetch.rateDist::0                   997022     49.89%     49.89% # Number of instructions fetched each cycle (Total)
system.cpu.fetch.rateDist::1                    47012      2.35%     52.24% # Number of instructions fetched each cycle (Total)
system.cpu.fetch.rateDist::2                    61902      3.10%     55.34% # Number of instructions fetched each cycle (Total)
system.cpu.fetch.rateDist::3                   101542      5.08%     60.42% # Number of instructions fetched each cycle (Total)
system.cpu.fetch.rateDist::4                    60209      3.01%     63.43% # Number of instructions fetched each cycle (Total)
system.cpu.fetch.rateDist::5                    50214      2.51%     65.94% # Number of instructions fetched each cycle (Total)
system.cpu.fetch.rateDist::6                    42015      2.10%     68.05% # Number of instructions fetched each cycle (Total)
system.cpu.fetch.rateDist::7                   106727      5.34%     73.39% # Number of instructions fetched each cycle (Total)
system.cpu.fetch.rateDist::8                   531849     26.61%    100.00% # Number of instructions fetched each cycle (Total)
system.cpu.fetch.rateDist::overflows                0      0.00%    100.00% # Number of instructions fetched each cycle (Total)
system.cpu.fetch.rateDist::min_value                0                       # Number of instructions fetched each cycle (Total)
system.cpu.fetch.rateDist::max_value                8                       # Number of instructions fetched each cycle (Total)
system.cpu.fetch.rateDist::total              1998492                       # Number of instructions fetched each cycle (Total)
system.cpu.fp_regfile_reads                     17477                       # number of floating regfile reads
system.cpu.fp_regfile_writes                     9530                       # number of floating regfile writes
system.cpu.idleCycles                          312642                       # Total number of cycles that the CPU has spent unscheduled due to idling
system.cpu.iew.branchMispredicts                35147                       # Number of branch mispredicts detected at execute
system.cpu.iew.exec_branches                   578480                       # Number of branches executed
system.cpu.iew.exec_nop                             0                       # number of nop insts executed
system.cpu.iew.exec_rate                     2.240038                       # Inst execution rate
system.cpu.iew.exec_refs                      1383839                       # number of memory reference insts executed
system.cpu.iew.exec_stores                     641501                       # Number of stores executed
system.cpu.iew.exec_swp                             0                       # number of swp insts executed
system.cpu.iew.iewBlockCycles                   94143                       # Number of cycles IEW is blocking
system.cpu.iew.iewDispLoadInsts                814597                       # Number of dispatched load instructions
system.cpu.iew.iewDispNonSpecInsts                832                       # Number of dispatched non-speculative instructions
system.cpu.iew.iewDispSquashedInsts              1860                       # Number of squashed instructions skipped by dispatch
system.cpu.iew.iewDispStoreInsts               694327                       # Number of dispatched store instructions
system.cpu.iew.iewDispatchedInsts             5593997                       # Number of instructions dispatched to IQ
system.cpu.iew.iewExecLoadInsts                742338                       # Number of load instructions executed
system.cpu.iew.iewExecSquashedInsts             51479                       # Number of squashed instructions skipped in execute
system.cpu.iew.iewExecutedInsts               5177028                       # Number of executed instructions
system.cpu.iew.iewIQFullEvents                     94                       # Number of times the IQ has become full, causing a stall
system.cpu.iew.iewIdleCycles                        0                       # Number of cycles IEW is idle
system.cpu.iew.iewLSQFullEvents                    87                       # Number of times the LSQ has become full, causing a stall
system.cpu.iew.iewSquashCycles                  29276                       # Number of cycles IEW is squashing
system.cpu.iew.iewUnblockCycles                   201                       # Number of cycles IEW is unblocking
system.cpu.iew.lsq.thread0.blockedLoads             0                       # Number of blocked loads due to partial load-store forwarding
system.cpu.iew.lsq.thread0.cacheBlocked            10                       # Number of times an access to memory failed due to the cache being blocked
system.cpu.iew.lsq.thread0.forwLoads           346959                       # Number of loads that had data forwarded from stores
system.cpu.iew.lsq.thread0.ignoredResponses          230                       # Number of memory responses ignored because the instruction is squashed
system.cpu.iew.lsq.thread0.invAddrLoads             0                       # Number of loads ignored due to an invalid address
system.cpu.iew.lsq.thread0.invAddrSwpfs             0                       # Number of software prefetches ignored due to an invalid address
system.cpu.iew.lsq.thread0.memOrderViolation          347                       # Number of memory ordering violations
system.cpu.iew.lsq.thread0.rescheduledLoads            0                       # Number of loads that were rescheduled
system.cpu.iew.lsq.thread0.squashedLoads       124931                       # Number of loads squashed
system.cpu.iew.lsq.thread0.squashedStores        82063                       # Number of stores squashed
system.cpu.iew.memOrderViolationEvents            347                       # Number of memory order violations
system.cpu.iew.predictedNotTakenIncorrect        28333                       # Number of branches that were predicted not taken incorrectly
system.cpu.iew.predictedTakenIncorrect           6814                       # Number of branches that were predicted taken incorrectly
system.cpu.iew.wb_consumers                   6535734                       # num instructions consuming a value
system.cpu.iew.wb_count                       5157658                       # cumulative count of insts written-back
system.cpu.iew.wb_fanout                     0.543824                       # average fanout of values written-back
system.cpu.iew.wb_producers                   3554292                       # num instructions producing a value
system.cpu.iew.wb_rate                       2.231657                       # insts written-back per cycle
system.cpu.iew.wb_sent                        5168340                       # cumulative count of insts sent to commit
system.cpu.int_regfile_reads                  8540999                       # number of integer regfile reads
system.cpu.int_regfile_writes                 3928856                       # number of integer regfile writes
system.cpu.ipc                               1.018392                       # IPC: Instructions Per Cycle
system.cpu.ipc_total                         1.018392                       # IPC: Total IPC of All Threads
system.cpu.iq.FU_type_0::No_OpClass             98505      1.88%      1.88% # Type of FU issued
system.cpu.iq.FU_type_0::IntAlu               3713751     71.03%     72.91% # Type of FU issued
system.cpu.iq.FU_type_0::IntMult                 5785      0.11%     73.02% # Type of FU issued
system.cpu.iq.FU_type_0::IntDiv                    14      0.00%     73.02% # Type of FU issued
system.cpu.iq.FU_type_0::FloatAdd                 521      0.01%     73.03% # Type of FU issued
system.cpu.iq.FU_type_0::FloatCmp                   0      0.00%     73.03% # Type of FU issued
system.cpu.iq.FU_type_0::FloatCvt                   0      0.00%     73.03% # Type of FU issued
system.cpu.iq.FU_type_0::FloatMult                  0      0.00%     73.03% # Type of FU issued
system.cpu.iq.FU_type_0::FloatMultAcc               0      0.00%     73.03% # Type of FU issued
system.cpu.iq.FU_type_0::FloatDiv                   0      0.00%     73.03% # Type of FU issued
system.cpu.iq.FU_type_0::FloatMisc                  0      0.00%     73.03% # Type of FU issued
system.cpu.iq.FU_type_0::FloatSqrt                  0      0.00%     73.03% # Type of FU issued
system.cpu.iq.FU_type_0::SimdAdd                    8      0.00%     73.03% # Type of FU issued
system.cpu.iq.FU_type_0::SimdAddAcc                 0      0.00%     73.03% # Type of FU issued
system.cpu.iq.FU_type_0::SimdAlu                   83      0.00%     73.04% # Type of FU issued
system.cpu.iq.FU_type_0::SimdCmp                    0      0.00%     73.04% # Type of FU issued
system.cpu.iq.FU_type_0::SimdCvt                 2426      0.05%     73.08% # Type of FU issued
system.cpu.iq.FU_type_0::SimdMisc                5947      0.11%     73.20% # Type of FU issued
system.cpu.iq.FU_type_0::SimdMult                   0      0.00%     73.20% # Type of FU issued
system.cpu.iq.FU_type_0::SimdMultAcc                0      0.00%     73.20% # Type of FU issued
system.cpu.iq.FU_type_0::SimdShift                 15      0.00%     73.20% # Type of FU issued
system.cpu.iq.FU_type_0::SimdShiftAcc               0      0.00%     73.20% # Type of FU issued
system.cpu.iq.FU_type_0::SimdDiv                    0      0.00%     73.20% # Type of FU issued
system.cpu.iq.FU_type_0::SimdSqrt                   0      0.00%     73.20% # Type of FU issued
system.cpu.iq.FU_type_0::SimdFloatAdd               0      0.00%     73.20% # Type of FU issued
system.cpu.iq.FU_type_0::SimdFloatAlu               0      0.00%     73.20% # Type of FU issued
system.cpu.iq.FU_type_0::SimdFloatCmp               0      0.00%     73.20% # Type of FU issued
system.cpu.iq.FU_type_0::SimdFloatCvt               0      0.00%     73.20% # Type of FU issued
system.cpu.iq.FU_type_0::SimdFloatDiv               0      0.00%     73.20% # Type of FU issued
system.cpu.iq.FU_type_0::SimdFloatMisc              0      0.00%     73.20% # Type of FU issued
system.cpu.iq.FU_type_0::SimdFloatMult              0      0.00%     73.20% # Type of FU issued
system.cpu.iq.FU_type_0::SimdFloatMultAcc            0      0.00%     73.20% # Type of FU issued
system.cpu.iq.FU_type_0::SimdFloatSqrt              0      0.00%     73.20% # Type of FU issued
system.cpu.iq.FU_type_0::SimdReduceAdd              0      0.00%     73.20% # Type of FU issued
system.cpu.iq.FU_type_0::SimdReduceAlu              0      0.00%     73.20% # Type of FU issued
system.cpu.iq.FU_type_0::SimdReduceCmp              0      0.00%     73.20% # Type of FU issued
system.cpu.iq.FU_type_0::SimdFloatReduceAdd            0      0.00%     73.20% # Type of FU issued
system.cpu.iq.FU_type_0::SimdFloatReduceCmp            0      0.00%     73.20% # Type of FU issued
system.cpu.iq.FU_type_0::SimdAes                    0      0.00%     73.20% # Type of FU issued
system.cpu.iq.FU_type_0::SimdAesMix                 0      0.00%     73.20% # Type of FU issued
system.cpu.iq.FU_type_0::SimdSha1Hash               0      0.00%     73.20% # Type of FU issued
system.cpu.iq.FU_type_0::SimdSha1Hash2              0      0.00%     73.20% # Type of FU issued
system.cpu.iq.FU_type_0::SimdSha256Hash             0      0.00%     73.20% # Type of FU issued
system.cpu.iq.FU_type_0::SimdSha256Hash2            0      0.00%     73.20% # Type of FU issued
system.cpu.iq.FU_type_0::SimdShaSigma2              0      0.00%     73.20% # Type of FU issued
system.cpu.iq.FU_type_0::SimdShaSigma3              0      0.00%     73.20% # Type of FU issued
system.cpu.iq.FU_type_0::SimdPredAlu                0      0.00%     73.20% # Type of FU issued
system.cpu.iq.FU_type_0::MemRead               750266     14.35%     87.55% # Type of FU issued
system.cpu.iq.FU_type_0::MemWrite              648459     12.40%     99.95% # Type of FU issued
system.cpu.iq.FU_type_0::FloatMemRead            2721      0.05%    100.00% # Type of FU issued
system.cpu.iq.FU_type_0::FloatMemWrite             12      0.00%    100.00% # Type of FU issued
system.cpu.iq.FU_type_0::IprAccess                  0      0.00%    100.00% # Type of FU issued
system.cpu.iq.FU_type_0::InstPrefetch               0      0.00%    100.00% # Type of FU issued
system.cpu.iq.FU_type_0::total                5228513                       # Type of FU issued
system.cpu.iq.fp_alu_accesses                   12308                       # Number of floating point alu accesses
system.cpu.iq.fp_inst_queue_reads               24570                       # Number of floating instruction queue reads
system.cpu.iq.fp_inst_queue_wakeup_accesses        11915                       # Number of floating instruction queue wakeup accesses
system.cpu.iq.fp_inst_queue_writes              15281                       # Number of floating instruction queue writes
system.cpu.iq.fu_busy_cnt                       64136                       # FU busy when requested
system.cpu.iq.fu_busy_rate                   0.012267                       # FU busy rate (busy events/executed inst)
system.cpu.iq.fu_full::No_OpClass                   0      0.00%      0.00% # attempts to use FU when none available
system.cpu.iq.fu_full::IntAlu                   42759     66.67%     66.67% # attempts to use FU when none available
system.cpu.iq.fu_full::IntMult                      0      0.00%     66.67% # attempts to use FU when none available
system.cpu.iq.fu_full::IntDiv                       0      0.00%     66.67% # attempts to use FU when none available
system.cpu.iq.fu_full::FloatAdd                     0      0.00%     66.67% # attempts to use FU when none available
system.cpu.iq.fu_full::FloatCmp                     0      0.00%     66.67% # attempts to use FU when none available
system.cpu.iq.fu_full::FloatCvt                     0      0.00%     66.67% # attempts to use FU when none available
system.cpu.iq.fu_full::FloatMult                    0      0.00%     66.67% # attempts to use FU when none available
system.cpu.iq.fu_full::FloatMultAcc                 0      0.00%     66.67% # attempts to use FU when none available
system.cpu.iq.fu_full::FloatDiv                     0      0.00%     66.67% # attempts to use FU when none available
system.cpu.iq.fu_full::FloatMisc                    0      0.00%     66.67% # attempts to use FU when none available
system.cpu.iq.fu_full::FloatSqrt                    0      0.00%     66.67% # attempts to use FU when none available
system.cpu.iq.fu_full::SimdAdd                      0      0.00%     66.67% # attempts to use FU when none available
system.cpu.iq.fu_full::SimdAddAcc                   0      0.00%     66.67% # attempts to use FU when none available
system.cpu.iq.fu_full::SimdAlu                      5      0.01%     66.68% # attempts to use FU when none available
system.cpu.iq.fu_full::SimdCmp                      0      0.00%     66.68% # attempts to use FU when none available
system.cpu.iq.fu_full::SimdCvt                     46      0.07%     66.75% # attempts to use FU when none available
system.cpu.iq.fu_full::SimdMisc                     0      0.00%     66.75% # attempts to use FU when none available
system.cpu.iq.fu_full::SimdMult                     0      0.00%     66.75% # attempts to use FU when none available
system.cpu.iq.fu_full::SimdMultAcc                  0      0.00%     66.75% # attempts to use FU when none available
system.cpu.iq.fu_full::SimdShift                    0      0.00%     66.75% # attempts to use FU when none available
system.cpu.iq.fu_full::SimdShiftAcc                 0      0.00%     66.75% # attempts to use FU when none available
system.cpu.iq.fu_full::SimdDiv                      0      0.00%     66.75% # attempts to use FU when none available
system.cpu.iq.fu_full::SimdSqrt                     0      0.00%     66.75% # attempts to use FU when none available
system.cpu.iq.fu_full::SimdFloatAdd                 0      0.00%     66.75% # attempts to use FU when none available
system.cpu.iq.fu_full::SimdFloatAlu                 0      0.00%     66.75% # attempts to use FU when none available
system.cpu.iq.fu_full::SimdFloatCmp                 0      0.00%     66.75% # attempts to use FU when none available
system.cpu.iq.fu_full::SimdFloatCvt                 0      0.00%     66.75% # attempts to use FU when none available
system.cpu.iq.fu_full::SimdFloatDiv                 0      0.00%     66.75% # attempts to use FU when none available
system.cpu.iq.fu_full::SimdFloatMisc                0      0.00%     66.75% # attempts to use FU when none available
system.cpu.iq.fu_full::SimdFloatMult                0      0.00%     66.75% # attempts to use FU when none available
system.cpu.iq.fu_full::SimdFloatMultAcc             0      0.00%     66.75% # attempts to use FU when none available
system.cpu.iq.fu_full::SimdFloatSqrt                0      0.00%     66.75% # attempts to use FU when none available
system.cpu.iq.fu_full::SimdReduceAdd                0      0.00%     66.75% # attempts to use FU when none available
system.cpu.iq.fu_full::SimdReduceAlu                0      0.00%     66.75% # attempts to use FU when none available
system.cpu.iq.fu_full::SimdReduceCmp                0      0.00%     66.75% # attempts to use FU when none available
system.cpu.iq.fu_full::SimdFloatReduceAdd            0      0.00%     66.75% # attempts to use FU when none available
system.cpu.iq.fu_full::SimdFloatReduceCmp            0      0.00%     66.75% # attempts to use FU when none available
system.cpu.iq.fu_full::SimdAes                      0      0.00%     66.75% # attempts to use FU when none available
system.cpu.iq.fu_full::SimdAesMix                   0      0.00%     66.75% # attempts to use FU when none available
system.cpu.iq.fu_full::SimdSha1Hash                 0      0.00%     66.75% # attempts to use FU when none available
system.cpu.iq.fu_full::SimdSha1Hash2                0      0.00%     66.75% # attempts to use FU when none available
system.cpu.iq.fu_full::SimdSha256Hash               0      0.00%     66.75% # attempts to use FU when none available
system.cpu.iq.fu_full::SimdSha256Hash2              0      0.00%     66.75% # attempts to use FU when none available
system.cpu.iq.fu_full::SimdShaSigma2                0      0.00%     66.75% # attempts to use FU when none available
system.cpu.iq.fu_full::SimdShaSigma3                0      0.00%     66.75% # attempts to use FU when none available
system.cpu.iq.fu_full::SimdPredAlu                  0      0.00%     66.75% # attempts to use FU when none available
system.cpu.iq.fu_full::MemRead                  13107     20.44%     87.19% # attempts to use FU when none available
system.cpu.iq.fu_full::MemWrite                  8216     12.81%    100.00% # attempts to use FU when none available
system.cpu.iq.fu_full::FloatMemRead                 0      0.00%    100.00% # attempts to use FU when none available
system.cpu.iq.fu_full::FloatMemWrite                3      0.00%    100.00% # attempts to use FU when none available
system.cpu.iq.fu_full::IprAccess                    0      0.00%    100.00% # attempts to use FU when none available
system.cpu.iq.fu_full::InstPrefetch                 0      0.00%    100.00% # attempts to use FU when none available
system.cpu.iq.int_alu_accesses                5181836                       # Number of integer alu accesses
system.cpu.iq.int_inst_queue_reads           12498443                       # Number of integer instruction queue reads
system.cpu.iq.int_inst_queue_wakeup_accesses      5145743                       # Number of integer instruction queue wakeup accesses
system.cpu.iq.int_inst_queue_writes           6386387                       # Number of integer instruction queue writes
system.cpu.iq.iqInstsAdded                    5591122                       # Number of instructions added to the IQ (excludes non-spec)
system.cpu.iq.iqInstsIssued                   5228513                       # Number of instructions issued
system.cpu.iq.iqNonSpecInstsAdded                2875                       # Number of non-speculative instructions added to the IQ
system.cpu.iq.iqSquashedInstsExamined          807336                       # Number of squashed instructions iterated over during squash; mainly for profiling
system.cpu.iq.iqSquashedInstsIssued              3365                       # Number of squashed instructions issued
system.cpu.iq.iqSquashedNonSpecRemoved           2833                       # Number of squashed non-spec instructions that were removed
system.cpu.iq.iqSquashedOperandsExamined      1279183                       # Number of squashed operands that are examined and possibly removed from graph
system.cpu.iq.issued_per_cycle::samples       1998492                       # Number of insts issued each cycle
system.cpu.iq.issued_per_cycle::mean         2.616229                       # Number of insts issued each cycle
system.cpu.iq.issued_per_cycle::stdev        2.198713                       # Number of insts issued each cycle
system.cpu.iq.issued_per_cycle::underflows            0      0.00%      0.00% # Number of insts issued each cycle
system.cpu.iq.issued_per_cycle::0              553133     27.68%     27.68% # Number of insts issued each cycle
system.cpu.iq.issued_per_cycle::1              149211      7.47%     35.14% # Number of insts issued each cycle
system.cpu.iq.issued_per_cycle::2              294465     14.73%     49.88% # Number of insts issued each cycle
system.cpu.iq.issued_per_cycle::3              289016     14.46%     64.34% # Number of insts issued each cycle
system.cpu.iq.issued_per_cycle::4              308097     15.42%     79.76% # Number of insts issued each cycle
system.cpu.iq.issued_per_cycle::5              168363      8.42%     88.18% # Number of insts issued each cycle
system.cpu.iq.issued_per_cycle::6              132153      6.61%     94.79% # Number of insts issued each cycle
system.cpu.iq.issued_per_cycle::7               76229      3.81%     98.61% # Number of insts issued each cycle
system.cpu.iq.issued_per_cycle::8               27825      1.39%    100.00% # Number of insts issued each cycle
system.cpu.iq.issued_per_cycle::overflows            0      0.00%    100.00% # Number of insts issued each cycle
system.cpu.iq.issued_per_cycle::min_value            0                       # Number of insts issued each cycle
system.cpu.iq.issued_per_cycle::max_value            8                       # Number of insts issued each cycle
system.cpu.iq.issued_per_cycle::total         1998492                       # Number of insts issued each cycle
system.cpu.iq.rate                           2.262315                       # Inst issue rate
system.cpu.iq.vec_alu_accesses                      0                       # Number of vector alu accesses
system.cpu.iq.vec_inst_queue_reads                  0                       # Number of vector instruction queue reads
system.cpu.iq.vec_inst_queue_wakeup_accesses            0                       # Number of vector instruction queue wakeup accesses
system.cpu.iq.vec_inst_queue_writes                 0                       # Number of vector instruction queue writes
system.cpu.itb.rdAccesses                           0                       # TLB accesses on read requests
system.cpu.itb.rdMisses                             0                       # TLB misses on read requests
system.cpu.itb.wrAccesses                      490337                       # TLB accesses on write requests
system.cpu.itb.wrMisses                           162                       # TLB misses on write requests
system.cpu.memDep0.conflictingLoads            171567                       # Number of conflicting loads.
system.cpu.memDep0.conflictingStores            33702                       # Number of conflicting stores.
system.cpu.memDep0.insertedLoads               814597                       # Number of loads inserted to the mem dependence unit.
system.cpu.memDep0.insertedStores              694327                       # Number of stores inserted to the mem dependence unit.
system.cpu.misc_regfile_reads                 2287267                       # number of misc regfile reads
system.cpu.misc_regfile_writes                      1                       # number of misc regfile writes
system.cpu.numCycles                          2311134                       # number of cpu cycles simulated
system.cpu.numWorkItemsCompleted                    0                       # number of work items this cpu completed
system.cpu.numWorkItemsStarted                      0                       # number of work items this cpu started
system.cpu.rename.BlockCycles                   97037                       # Number of cycles rename is blocking
system.cpu.rename.CommittedMaps               4640319                       # Number of HB maps that are committed
system.cpu.rename.IQFullEvents                  45865                       # Number of times rename has blocked due to IQ full
system.cpu.rename.IdleCycles                   776887                       # Number of cycles rename is idle
system.cpu.rename.LQFullEvents                    914                       # Number of times rename has blocked due to LQ full
system.cpu.rename.ROBFullEvents                   553                       # Number of times rename has blocked due to ROB full
system.cpu.rename.RenameLookups              14628018                       # Number of register rename lookups that rename has made
system.cpu.rename.RenamedInsts                5828192                       # Number of instructions processed by rename
system.cpu.rename.RenamedOperands             5697910                       # Number of destination operands rename has renamed
system.cpu.rename.RunCycles                    864476                       # Number of cycles rename is running
system.cpu.rename.SQFullEvents                 168265                       # Number of times rename has blocked due to SQ full
system.cpu.rename.SquashCycles                  29276                       # Number of cycles rename is squashing
system.cpu.rename.UnblockCycles                229806                       # Number of cycles rename is unblocking
system.cpu.rename.UndoneMaps                  1057559                       # Number of HB maps that are undone due to squashing
system.cpu.rename.fp_rename_lookups             19086                       # Number of floating rename lookups
system.cpu.rename.int_rename_lookups          9716018                       # Number of integer rename lookups
system.cpu.rename.serializeStallCycles           1010                       # count of cycles rename stalled for serializing inst
system.cpu.rename.serializingInsts                 17                       # count of serializing insts renamed
system.cpu.rename.skidInsts                    365176                       # count of insts added to the skid buffer
system.cpu.rename.tempSerializingInsts             13                       # count of temporary serializing insts renamed
system.cpu.rob.rob_reads                      7192294                       # The number of ROB reads
system.cpu.rob.rob_writes                    11307187                       # The number of ROB writes
system.cpu.timesIdled                            7493                       # Number of times that the entire CPU went into an idle state and unscheduled itself
system.cpu.workload.numSyscalls                    10                       # Number of system calls
system.membus.snoop_filter.hit_multi_requests            4                       # Number of requests hitting in the snoop filter with multiple (>1) holders of the requested data.
system.membus.snoop_filter.hit_multi_snoops            0                       # Number of snoops hitting in the snoop filter with multiple (>1) holders of the requested data.
system.membus.snoop_filter.hit_single_requests         8408                       # Number of requests hitting in the snoop filter with a single holder of the requested data.
system.membus.snoop_filter.hit_single_snoops            0                       # Number of snoops hitting in the snoop filter with a single holder of the requested data.
system.membus.snoop_filter.tot_requests         17813                       # Total number of requests made to the snoop filter.
system.membus.snoop_filter.tot_snoops               0                       # Total number of snoops made to the snoop filter.
system.membus.pwrStateResidencyTicks::UNDEFINED    769607289                       # Cumulative time (in ticks) in various power states
system.membus.trans_dist::ReadResp               8791                       # Transaction distribution
system.membus.trans_dist::WritebackDirty           59                       # Transaction distribution
system.membus.trans_dist::WritebackClean         8321                       # Transaction distribution
system.membus.trans_dist::CleanEvict               28                       # Transaction distribution
system.membus.trans_dist::ReadExReq               614                       # Transaction distribution
system.membus.trans_dist::ReadExResp              614                       # Transaction distribution
system.membus.trans_dist::ReadCleanReq           8568                       # Transaction distribution
system.membus.trans_dist::ReadSharedReq           223                       # Transaction distribution
system.membus.pkt_count_system.cpu.icache.mem_side::system.mem_ctrls.port        25457                       # Packet count per connected master and slave (bytes)
system.membus.pkt_count_system.cpu.icache.mem_side::total        25457                       # Packet count per connected master and slave (bytes)
system.membus.pkt_count_system.cpu.dcache.mem_side::system.mem_ctrls.port         1761                       # Packet count per connected master and slave (bytes)
system.membus.pkt_count_system.cpu.dcache.mem_side::total         1761                       # Packet count per connected master and slave (bytes)
system.membus.pkt_count::total                  27218                       # Packet count per connected master and slave (bytes)
system.membus.pkt_size_system.cpu.icache.mem_side::system.mem_ctrls.port      1080896                       # Cumulative packet size per connected master and slave (bytes)
system.membus.pkt_size_system.cpu.icache.mem_side::total      1080896                       # Cumulative packet size per connected master and slave (bytes)
system.membus.pkt_size_system.cpu.dcache.mem_side::system.mem_ctrls.port        57344                       # Cumulative packet size per connected master and slave (bytes)
system.membus.pkt_size_system.cpu.dcache.mem_side::total        57344                       # Cumulative packet size per connected master and slave (bytes)
system.membus.pkt_size::total                 1138240                       # Cumulative packet size per connected master and slave (bytes)
system.membus.snoops                                0                       # Total snoops (count)
system.membus.snoopTraffic                          0                       # Total snoop traffic (bytes)
system.membus.snoop_fanout::samples              9405                       # Request fanout histogram
system.membus.snoop_fanout::mean             0.000425                       # Request fanout histogram
system.membus.snoop_fanout::stdev            0.020620                       # Request fanout histogram
system.membus.snoop_fanout::underflows              0      0.00%      0.00% # Request fanout histogram
system.membus.snoop_fanout::0                    9401     99.96%     99.96% # Request fanout histogram
system.membus.snoop_fanout::1                       4      0.04%    100.00% # Request fanout histogram
system.membus.snoop_fanout::2                       0      0.00%    100.00% # Request fanout histogram
system.membus.snoop_fanout::3                       0      0.00%    100.00% # Request fanout histogram
system.membus.snoop_fanout::4                       0      0.00%    100.00% # Request fanout histogram
system.membus.snoop_fanout::overflows               0      0.00%    100.00% # Request fanout histogram
system.membus.snoop_fanout::min_value               0                       # Request fanout histogram
system.membus.snoop_fanout::max_value               1                       # Request fanout histogram
system.membus.snoop_fanout::total                9405                       # Request fanout histogram
system.membus.reqLayer2.occupancy            55596218                       # Layer occupancy (ticks)
system.membus.reqLayer2.utilization               7.2                       # Layer utilization (%)
system.membus.respLayer1.occupancy           43062081                       # Layer occupancy (ticks)
system.membus.respLayer1.utilization              5.6                       # Layer utilization (%)
system.membus.respLayer2.occupancy            4477845                       # Layer occupancy (ticks)
system.membus.respLayer2.utilization              0.6                       # Layer utilization (%)
system.voltage_domain.voltage                       1                       # Voltage in Volts
system.clk_domain.clock                          1000                       # Clock period in ticks
system.cpu_voltage_domain.voltage                   1                       # Voltage in Volts
system.mem_ctrls.pwrStateResidencyTicks::UNDEFINED    769607289                       # Cumulative time (in ticks) in various power states
system.mem_ctrls.bytes_read::.cpu.inst         548352                       # Number of bytes read from this memory
system.mem_ctrls.bytes_read::.cpu.data          53568                       # Number of bytes read from this memory
system.mem_ctrls.bytes_read::total             601920                       # Number of bytes read from this memory
system.mem_ctrls.bytes_inst_read::.cpu.inst       548352                       # Number of instructions bytes read from this memory
system.mem_ctrls.bytes_inst_read::total        548352                       # Number of instructions bytes read from this memory
system.mem_ctrls.bytes_written::.writebacks         3776                       # Number of bytes written to this memory
system.mem_ctrls.bytes_written::total            3776                       # Number of bytes written to this memory
system.mem_ctrls.num_reads::.cpu.inst            8568                       # Number of read requests responded to by this memory
system.mem_ctrls.num_reads::.cpu.data             837                       # Number of read requests responded to by this memory
system.mem_ctrls.num_reads::total                9405                       # Number of read requests responded to by this memory
system.mem_ctrls.num_writes::.writebacks           59                       # Number of write requests responded to by this memory
system.mem_ctrls.num_writes::total                 59                       # Number of write requests responded to by this memory
system.mem_ctrls.bw_read::.cpu.inst         712508844                       # Total read bandwidth from this memory (bytes/s)
system.mem_ctrls.bw_read::.cpu.data          69604330                       # Total read bandwidth from this memory (bytes/s)
system.mem_ctrls.bw_read::total             782113175                       # Total read bandwidth from this memory (bytes/s)
system.mem_ctrls.bw_inst_read::.cpu.inst    712508844                       # Instruction read bandwidth from this memory (bytes/s)
system.mem_ctrls.bw_inst_read::total        712508844                       # Instruction read bandwidth from this memory (bytes/s)
system.mem_ctrls.bw_write::.writebacks        4906398                       # Write bandwidth from this memory (bytes/s)
system.mem_ctrls.bw_write::total              4906398                       # Write bandwidth from this memory (bytes/s)
system.mem_ctrls.bw_total::.writebacks        4906398                       # Total bandwidth to/from this memory (bytes/s)
system.mem_ctrls.bw_total::.cpu.inst        712508844                       # Total bandwidth to/from this memory (bytes/s)
system.mem_ctrls.bw_total::.cpu.data         69604330                       # Total bandwidth to/from this memory (bytes/s)
system.mem_ctrls.bw_total::total            787019573                       # Total bandwidth to/from this memory (bytes/s)
system.mem_ctrls.avgPriority_.writebacks::samples       644.00                       # Average QoS priority value for accepted requests
system.mem_ctrls.avgPriority_.cpu.inst::samples       685.00                       # Average QoS priority value for accepted requests
system.mem_ctrls.avgPriority_.cpu.data::samples       836.00                       # Average QoS priority value for accepted requests
system.mem_ctrls.priorityMinLatency      0.000000018750                       # per QoS priority minimum request to response latency (s)
system.mem_ctrls.priorityMaxLatency      0.000572858434                       # per QoS priority maximum request to response latency (s)
system.mem_ctrls.numReadWriteTurnArounds           37                       # Number of turnarounds from READ to WRITE
system.mem_ctrls.numWriteReadTurnArounds           37                       # Number of turnarounds from WRITE to READ
system.mem_ctrls.numStayReadState               11507                       # Number of times bus staying in READ state
system.mem_ctrls.numStayWriteState                586                       # Number of times bus staying in WRITE state
system.mem_ctrls.readReqs                        9405                       # Number of read requests accepted
system.mem_ctrls.writeReqs                       8378                       # Number of write requests accepted
system.mem_ctrls.readBursts                      9405                       # Number of DRAM read bursts, including those serviced by the write queue
system.mem_ctrls.writeBursts                     8378                       # Number of DRAM write bursts, including those merged in the write queue
system.mem_ctrls.servicedByWrQ                   7884                       # Number of DRAM read bursts serviced by the write queue
system.mem_ctrls.mergedWrBursts                  7734                       # Number of DRAM write bursts merged with an existing one
system.mem_ctrls.neitherReadNorWriteReqs            0                       # Number of requests that are neither read nor write
system.mem_ctrls.perBankRdBursts::0               243                       # Per bank write bursts
system.mem_ctrls.perBankRdBursts::1               166                       # Per bank write bursts
system.mem_ctrls.perBankRdBursts::2                40                       # Per bank write bursts
system.mem_ctrls.perBankRdBursts::3                12                       # Per bank write bursts
system.mem_ctrls.perBankRdBursts::4                26                       # Per bank write bursts
system.mem_ctrls.perBankRdBursts::5                54                       # Per bank write bursts
system.mem_ctrls.perBankRdBursts::6                19                       # Per bank write bursts
system.mem_ctrls.perBankRdBursts::7                57                       # Per bank write bursts
system.mem_ctrls.perBankRdBursts::8                15                       # Per bank write bursts
system.mem_ctrls.perBankRdBursts::9                55                       # Per bank write bursts
system.mem_ctrls.perBankRdBursts::10               82                       # Per bank write bursts
system.mem_ctrls.perBankRdBursts::11               91                       # Per bank write bursts
system.mem_ctrls.perBankRdBursts::12               57                       # Per bank write bursts
system.mem_ctrls.perBankRdBursts::13              211                       # Per bank write bursts
system.mem_ctrls.perBankRdBursts::14              234                       # Per bank write bursts
system.mem_ctrls.perBankRdBursts::15              159                       # Per bank write bursts
system.mem_ctrls.perBankWrBursts::0                55                       # Per bank write bursts
system.mem_ctrls.perBankWrBursts::1               135                       # Per bank write bursts
system.mem_ctrls.perBankWrBursts::2                45                       # Per bank write bursts
system.mem_ctrls.perBankWrBursts::3                 8                       # Per bank write bursts
system.mem_ctrls.perBankWrBursts::4                19                       # Per bank write bursts
system.mem_ctrls.perBankWrBursts::5                53                       # Per bank write bursts
system.mem_ctrls.perBankWrBursts::6                17                       # Per bank write bursts
system.mem_ctrls.perBankWrBursts::7                40                       # Per bank write bursts
system.mem_ctrls.perBankWrBursts::8                12                       # Per bank write bursts
system.mem_ctrls.perBankWrBursts::9                44                       # Per bank write bursts
system.mem_ctrls.perBankWrBursts::10               46                       # Per bank write bursts
system.mem_ctrls.perBankWrBursts::11               42                       # Per bank write bursts
system.mem_ctrls.perBankWrBursts::12               43                       # Per bank write bursts
system.mem_ctrls.perBankWrBursts::13               11                       # Per bank write bursts
system.mem_ctrls.perBankWrBursts::14               38                       # Per bank write bursts
system.mem_ctrls.perBankWrBursts::15               15                       # Per bank write bursts
system.mem_ctrls.avgRdQLen                       1.05                       # Average read queue length when enqueuing
system.mem_ctrls.avgWrQLen                      27.85                       # Average write queue length when enqueuing
system.mem_ctrls.totQLat                     17346215                       # Total ticks spent queuing
system.mem_ctrls.totBusLat                    7605000                       # Total ticks spent in databus transfers
system.mem_ctrls.totMemAccLat                45864965                       # Total ticks spent from burst creation until serviced by the DRAM
system.mem_ctrls.avgQLat                     11404.48                       # Average queueing delay per DRAM burst
system.mem_ctrls.avgBusLat                    5000.00                       # Average bus latency per DRAM burst
system.mem_ctrls.avgMemAccLat                30154.48                       # Average memory access latency per DRAM burst
system.mem_ctrls.numRdRetry                         0                       # Number of times read queue was full causing retry
system.mem_ctrls.numWrRetry                         0                       # Number of times write queue was full causing retry
system.mem_ctrls.readRowHits                     1091                       # Number of row buffer hits during reads
system.mem_ctrls.writeRowHits                     478                       # Number of row buffer hits during writes
system.mem_ctrls.readRowHitRate                 71.73                       # Row buffer hit rate for reads
system.mem_ctrls.writeRowHitRate                74.22                       # Row buffer hit rate for writes
system.mem_ctrls.readPktSize::0                     0                       # Read request sizes (log2)
system.mem_ctrls.readPktSize::1                     0                       # Read request sizes (log2)
system.mem_ctrls.readPktSize::2                     0                       # Read request sizes (log2)
system.mem_ctrls.readPktSize::3                     0                       # Read request sizes (log2)
system.mem_ctrls.readPktSize::4                     0                       # Read request sizes (log2)
system.mem_ctrls.readPktSize::5                     0                       # Read request sizes (log2)
system.mem_ctrls.readPktSize::6                  9405                       # Read request sizes (log2)
system.mem_ctrls.writePktSize::0                    0                       # Write request sizes (log2)
system.mem_ctrls.writePktSize::1                    0                       # Write request sizes (log2)
system.mem_ctrls.writePktSize::2                    0                       # Write request sizes (log2)
system.mem_ctrls.writePktSize::3                    0                       # Write request sizes (log2)
system.mem_ctrls.writePktSize::4                    0                       # Write request sizes (log2)
system.mem_ctrls.writePktSize::5                    0                       # Write request sizes (log2)
system.mem_ctrls.writePktSize::6                 8378                       # Write request sizes (log2)
system.mem_ctrls.rdQLenPdf::0                    1160                       # What read queue length does an incoming req see
system.mem_ctrls.rdQLenPdf::1                     266                       # What read queue length does an incoming req see
system.mem_ctrls.rdQLenPdf::2                      73                       # What read queue length does an incoming req see
system.mem_ctrls.rdQLenPdf::3                      18                       # What read queue length does an incoming req see
system.mem_ctrls.rdQLenPdf::4                       4                       # What read queue length does an incoming req see
system.mem_ctrls.rdQLenPdf::5                       0                       # What read queue length does an incoming req see
system.mem_ctrls.rdQLenPdf::6                       0                       # What read queue length does an incoming req see
system.mem_ctrls.rdQLenPdf::7                       0                       # What read queue length does an incoming req see
system.mem_ctrls.rdQLenPdf::8                       0                       # What read queue length does an incoming req see
system.mem_ctrls.rdQLenPdf::9                       0                       # What read queue length does an incoming req see
system.mem_ctrls.rdQLenPdf::10                      0                       # What read queue length does an incoming req see
system.mem_ctrls.rdQLenPdf::11                      0                       # What read queue length does an incoming req see
system.mem_ctrls.rdQLenPdf::12                      0                       # What read queue length does an incoming req see
system.mem_ctrls.rdQLenPdf::13                      0                       # What read queue length does an incoming req see
system.mem_ctrls.rdQLenPdf::14                      0                       # What read queue length does an incoming req see
system.mem_ctrls.rdQLenPdf::15                      0                       # What read queue length does an incoming req see
system.mem_ctrls.rdQLenPdf::16                      0                       # What read queue length does an incoming req see
system.mem_ctrls.rdQLenPdf::17                      0                       # What read queue length does an incoming req see
system.mem_ctrls.rdQLenPdf::18                      0                       # What read queue length does an incoming req see
system.mem_ctrls.rdQLenPdf::19                      0                       # What read queue length does an incoming req see
system.mem_ctrls.rdQLenPdf::20                      0                       # What read queue length does an incoming req see
system.mem_ctrls.rdQLenPdf::21                      0                       # What read queue length does an incoming req see
system.mem_ctrls.rdQLenPdf::22                      0                       # What read queue length does an incoming req see
system.mem_ctrls.rdQLenPdf::23                      0                       # What read queue length does an incoming req see
system.mem_ctrls.rdQLenPdf::24                      0                       # What read queue length does an incoming req see
system.mem_ctrls.rdQLenPdf::25                      0                       # What read queue length does an incoming req see
system.mem_ctrls.rdQLenPdf::26                      0                       # What read queue length does an incoming req see
system.mem_ctrls.rdQLenPdf::27                      0                       # What read queue length does an incoming req see
system.mem_ctrls.rdQLenPdf::28                      0                       # What read queue length does an incoming req see
system.mem_ctrls.rdQLenPdf::29                      0                       # What read queue length does an incoming req see
system.mem_ctrls.rdQLenPdf::30                      0                       # What read queue length does an incoming req see
system.mem_ctrls.rdQLenPdf::31                      0                       # What read queue length does an incoming req see
system.mem_ctrls.wrQLenPdf::0                       1                       # What write queue length does an incoming req see
system.mem_ctrls.wrQLenPdf::1                       1                       # What write queue length does an incoming req see
system.mem_ctrls.wrQLenPdf::2                       1                       # What write queue length does an incoming req see
system.mem_ctrls.wrQLenPdf::3                       1                       # What write queue length does an incoming req see
system.mem_ctrls.wrQLenPdf::4                       1                       # What write queue length does an incoming req see
system.mem_ctrls.wrQLenPdf::5                       1                       # What write queue length does an incoming req see
system.mem_ctrls.wrQLenPdf::6                       1                       # What write queue length does an incoming req see
system.mem_ctrls.wrQLenPdf::7                       1                       # What write queue length does an incoming req see
system.mem_ctrls.wrQLenPdf::8                       1                       # What write queue length does an incoming req see
system.mem_ctrls.wrQLenPdf::9                       1                       # What write queue length does an incoming req see
system.mem_ctrls.wrQLenPdf::10                      1                       # What write queue length does an incoming req see
system.mem_ctrls.wrQLenPdf::11                      1                       # What write queue length does an incoming req see
system.mem_ctrls.wrQLenPdf::12                      1                       # What write queue length does an incoming req see
system.mem_ctrls.wrQLenPdf::13                      1                       # What write queue length does an incoming req see
system.mem_ctrls.wrQLenPdf::14                      1                       # What write queue length does an incoming req see
system.mem_ctrls.wrQLenPdf::15                     13                       # What write queue length does an incoming req see
system.mem_ctrls.wrQLenPdf::16                     14                       # What write queue length does an incoming req see
system.mem_ctrls.wrQLenPdf::17                     30                       # What write queue length does an incoming req see
system.mem_ctrls.wrQLenPdf::18                     38                       # What write queue length does an incoming req see
system.mem_ctrls.wrQLenPdf::19                     39                       # What write queue length does an incoming req see
system.mem_ctrls.wrQLenPdf::20                     42                       # What write queue length does an incoming req see
system.mem_ctrls.wrQLenPdf::21                     37                       # What write queue length does an incoming req see
system.mem_ctrls.wrQLenPdf::22                     37                       # What write queue length does an incoming req see
system.mem_ctrls.wrQLenPdf::23                     37                       # What write queue length does an incoming req see
system.mem_ctrls.wrQLenPdf::24                     39                       # What write queue length does an incoming req see
system.mem_ctrls.wrQLenPdf::25                     38                       # What write queue length does an incoming req see
system.mem_ctrls.wrQLenPdf::26                     41                       # What write queue length does an incoming req see
system.mem_ctrls.wrQLenPdf::27                     37                       # What write queue length does an incoming req see
system.mem_ctrls.wrQLenPdf::28                     38                       # What write queue length does an incoming req see
system.mem_ctrls.wrQLenPdf::29                     37                       # What write queue length does an incoming req see
system.mem_ctrls.wrQLenPdf::30                     37                       # What write queue length does an incoming req see
system.mem_ctrls.wrQLenPdf::31                     37                       # What write queue length does an incoming req see
system.mem_ctrls.wrQLenPdf::32                     37                       # What write queue length does an incoming req see
system.mem_ctrls.wrQLenPdf::33                      1                       # What write queue length does an incoming req see
system.mem_ctrls.wrQLenPdf::34                      0                       # What write queue length does an incoming req see
system.mem_ctrls.wrQLenPdf::35                      0                       # What write queue length does an incoming req see
system.mem_ctrls.wrQLenPdf::36                      0                       # What write queue length does an incoming req see
system.mem_ctrls.wrQLenPdf::37                      0                       # What write queue length does an incoming req see
system.mem_ctrls.wrQLenPdf::38                      0                       # What write queue length does an incoming req see
system.mem_ctrls.wrQLenPdf::39                      0                       # What write queue length does an incoming req see
system.mem_ctrls.wrQLenPdf::40                      0                       # What write queue length does an incoming req see
system.mem_ctrls.wrQLenPdf::41                      0                       # What write queue length does an incoming req see
system.mem_ctrls.wrQLenPdf::42                      0                       # What write queue length does an incoming req see
system.mem_ctrls.wrQLenPdf::43                      0                       # What write queue length does an incoming req see
system.mem_ctrls.wrQLenPdf::44                      0                       # What write queue length does an incoming req see
system.mem_ctrls.wrQLenPdf::45                      0                       # What write queue length does an incoming req see
system.mem_ctrls.wrQLenPdf::46                      0                       # What write queue length does an incoming req see
system.mem_ctrls.wrQLenPdf::47                      0                       # What write queue length does an incoming req see
system.mem_ctrls.wrQLenPdf::48                      0                       # What write queue length does an incoming req see
system.mem_ctrls.wrQLenPdf::49                      0                       # What write queue length does an incoming req see
system.mem_ctrls.wrQLenPdf::50                      0                       # What write queue length does an incoming req see
system.mem_ctrls.wrQLenPdf::51                      0                       # What write queue length does an incoming req see
system.mem_ctrls.wrQLenPdf::52                      0                       # What write queue length does an incoming req see
system.mem_ctrls.wrQLenPdf::53                      0                       # What write queue length does an incoming req see
system.mem_ctrls.wrQLenPdf::54                      0                       # What write queue length does an incoming req see
system.mem_ctrls.wrQLenPdf::55                      0                       # What write queue length does an incoming req see
system.mem_ctrls.wrQLenPdf::56                      0                       # What write queue length does an incoming req see
system.mem_ctrls.wrQLenPdf::57                      0                       # What write queue length does an incoming req see
system.mem_ctrls.wrQLenPdf::58                      0                       # What write queue length does an incoming req see
system.mem_ctrls.wrQLenPdf::59                      0                       # What write queue length does an incoming req see
system.mem_ctrls.wrQLenPdf::60                      0                       # What write queue length does an incoming req see
system.mem_ctrls.wrQLenPdf::61                      0                       # What write queue length does an incoming req see
system.mem_ctrls.wrQLenPdf::62                      0                       # What write queue length does an incoming req see
system.mem_ctrls.wrQLenPdf::63                      0                       # What write queue length does an incoming req see
system.mem_ctrls.bytesPerActivate::samples          567                       # Bytes accessed per row activation
system.mem_ctrls.bytesPerActivate::mean    239.746032                       # Bytes accessed per row activation
system.mem_ctrls.bytesPerActivate::gmean   168.955622                       # Bytes accessed per row activation
system.mem_ctrls.bytesPerActivate::stdev   233.055580                       # Bytes accessed per row activation
system.mem_ctrls.bytesPerActivate::0-127          163     28.75%     28.75% # Bytes accessed per row activation
system.mem_ctrls.bytesPerActivate::128-255          212     37.39%     66.14% # Bytes accessed per row activation
system.mem_ctrls.bytesPerActivate::256-383           93     16.40%     82.54% # Bytes accessed per row activation
system.mem_ctrls.bytesPerActivate::384-511           37      6.53%     89.07% # Bytes accessed per row activation
system.mem_ctrls.bytesPerActivate::512-639           16      2.82%     91.89% # Bytes accessed per row activation
system.mem_ctrls.bytesPerActivate::640-767            8      1.41%     93.30% # Bytes accessed per row activation
system.mem_ctrls.bytesPerActivate::768-895            8      1.41%     94.71% # Bytes accessed per row activation
system.mem_ctrls.bytesPerActivate::896-1023            8      1.41%     96.12% # Bytes accessed per row activation
system.mem_ctrls.bytesPerActivate::1024-1151           22      3.88%    100.00% # Bytes accessed per row activation
system.mem_ctrls.bytesPerActivate::total          567                       # Bytes accessed per row activation
system.mem_ctrls.rdPerTurnAround::samples           37                       # Reads before turning the bus around for writes
system.mem_ctrls.rdPerTurnAround::mean      40.162162                       # Reads before turning the bus around for writes
system.mem_ctrls.rdPerTurnAround::gmean     27.588382                       # Reads before turning the bus around for writes
system.mem_ctrls.rdPerTurnAround::stdev     54.770488                       # Reads before turning the bus around for writes
system.mem_ctrls.rdPerTurnAround::0-15              6     16.22%     16.22% # Reads before turning the bus around for writes
system.mem_ctrls.rdPerTurnAround::16-31            18     48.65%     64.86% # Reads before turning the bus around for writes
system.mem_ctrls.rdPerTurnAround::32-47             9     24.32%     89.19% # Reads before turning the bus around for writes
system.mem_ctrls.rdPerTurnAround::48-63             1      2.70%     91.89% # Reads before turning the bus around for writes
system.mem_ctrls.rdPerTurnAround::112-127            1      2.70%     94.59% # Reads before turning the bus around for writes
system.mem_ctrls.rdPerTurnAround::192-207            1      2.70%     97.30% # Reads before turning the bus around for writes
system.mem_ctrls.rdPerTurnAround::288-303            1      2.70%    100.00% # Reads before turning the bus around for writes
system.mem_ctrls.rdPerTurnAround::total            37                       # Reads before turning the bus around for writes
system.mem_ctrls.wrPerTurnAround::samples           37                       # Writes before turning the bus around for reads
system.mem_ctrls.wrPerTurnAround::mean      16.837838                       # Writes before turning the bus around for reads
system.mem_ctrls.wrPerTurnAround::gmean     16.798625                       # Writes before turning the bus around for reads
system.mem_ctrls.wrPerTurnAround::stdev      1.190553                       # Writes before turning the bus around for reads
system.mem_ctrls.wrPerTurnAround::16               23     62.16%     62.16% # Writes before turning the bus around for reads
system.mem_ctrls.wrPerTurnAround::17                2      5.41%     67.57% # Writes before turning the bus around for reads
system.mem_ctrls.wrPerTurnAround::18                8     21.62%     89.19% # Writes before turning the bus around for reads
system.mem_ctrls.wrPerTurnAround::19                3      8.11%     97.30% # Writes before turning the bus around for reads
system.mem_ctrls.wrPerTurnAround::20                1      2.70%    100.00% # Writes before turning the bus around for reads
system.mem_ctrls.wrPerTurnAround::total            37                       # Writes before turning the bus around for reads
system.mem_ctrls.bytesReadDRAM                  97344                       # Total number of bytes read from DRAM
system.mem_ctrls.bytesReadWrQ                  504576                       # Total number of bytes read from write queue
system.mem_ctrls.bytesWritten                   39872                       # Total number of bytes written to DRAM
system.mem_ctrls.bytesReadSys                  601920                       # Total read bytes from the system interface side
system.mem_ctrls.bytesWrittenSys               536192                       # Total written bytes from the system interface side
system.mem_ctrls.avgRdBW                       126.49                       # Average DRAM read bandwidth in MiByte/s
system.mem_ctrls.avgWrBW                        51.81                       # Average achieved write bandwidth in MiByte/s
system.mem_ctrls.avgRdBWSys                    782.11                       # Average system read bandwidth in MiByte/s
system.mem_ctrls.avgWrBWSys                    696.71                       # Average system write bandwidth in MiByte/s
system.mem_ctrls.peakBW                      12800.00                       # Theoretical peak bandwidth in MiByte/s
system.mem_ctrls.busUtil                         1.39                       # Data bus utilization in percentage
system.mem_ctrls.busUtilRead                     0.99                       # Data bus utilization in percentage for reads
system.mem_ctrls.busUtilWrite                    0.40                       # Data bus utilization in percentage for writes
system.mem_ctrls.totGap                     769604334                       # Total gap between requests
[...]
system.cpu.icache.ReadReq_avg_mshr_miss_latency::total 66961.033835                       # average ReadReq mshr miss latency
system.cpu.icache.tags.pwrStateResidencyTicks::UNDEFINED     60991614                       # Cumulative time (in ticks) in various power states
system.cpu.icache.tags.tagsinuse           254.395944                       # Cycle average of tags in use
system.cpu.icache.tags.total_refs              739309                       # Total number of references to valid blocks.
system.cpu.icache.tags.sampled_refs               514                       # Sample count of references to valid blocks.
system.cpu.icache.tags.avg_refs           1438.344358                       # Average number of references to valid blocks.
system.cpu.icache.tags.warmup_cycle                 0                       # Cycle when the warmup percentage was hit.
system.cpu.icache.tags.occ_blocks::.cpu.inst   254.395944                       # Average occupied blocks per requestor
system.cpu.icache.tags.occ_percent::.cpu.inst     0.993734                       # Average percentage of cache occupancy
system.cpu.icache.tags.occ_percent::total     0.993734                       # Average percentage of cache occupancy
system.cpu.icache.tags.occ_task_id_blocks::1024          256                       # Occupied blocks per task id
system.cpu.icache.tags.age_task_id_blocks_1024::0           60                       # Occupied blocks per task id
system.cpu.icache.tags.age_task_id_blocks_1024::1          120                       # Occupied blocks per task id
system.cpu.icache.tags.age_task_id_blocks_1024::2           23                       # Occupied blocks per task id
system.cpu.icache.tags.age_task_id_blocks_1024::3           53                       # Occupied blocks per task id
system.cpu.icache.tags.occ_task_id_percent::1024            1                       # Percentage of cache occupancy per task id
system.cpu.icache.tags.tag_accesses             89052                       # Number of tag accesses
system.cpu.icache.tags.data_accesses            89052                       # Number of data accesses
system.cpu.dtb.walker.pwrStateResidencyTicks::UNDEFINED     60991614                       # Cumulative time (in ticks) in various power states
system.cpu.interrupts.clk_domain.clock           5328                       # Clock period in ticks
system.cpu.itb_walker_cache.pwrStateResidencyTicks::UNDEFINED     60991614                       # Cumulative time (in ticks) in various power states
system.cpu.itb_walker_cache.blocked_cycles::no_mshrs            0                       # number of cycles access was blocked
system.cpu.itb_walker_cache.blocked_cycles::no_targets            0                       # number of cycles access was blocked
system.cpu.itb_walker_cache.blocked::no_mshrs            0                       # number of cycles access was blocked
system.cpu.itb_walker_cache.blocked::no_targets            0                       # number of cycles access was blocked
system.cpu.itb_walker_cache.avg_blocked_cycles::no_mshrs          nan                       # average number of cycles each access was blocked
system.cpu.itb_walker_cache.avg_blocked_cycles::no_targets          nan                       # average number of cycles each access was blocked
system.cpu.itb_walker_cache.replacements            0                       # number of replacements
system.cpu.itb_walker_cache.tags.pwrStateResidencyTicks::UNDEFINED     60991614                       # Cumulative time (in ticks) in various power states
system.cpu.itb_walker_cache.tags.tagsinuse            0                       # Cycle average of tags in use
system.cpu.itb_walker_cache.tags.total_refs            0                       # Total number of references to valid blocks.
system.cpu.itb_walker_cache.tags.sampled_refs            0                       # Sample count of references to valid blocks.
system.cpu.itb_walker_cache.tags.avg_refs          nan                       # Average number of references to valid blocks.
system.cpu.itb_walker_cache.tags.warmup_cycle            0                       # Cycle when the warmup percentage was hit.
system.cpu.itb_walker_cache.tags.tag_accesses            0                       # Number of tag accesses
system.cpu.itb_walker_cache.tags.data_accesses            0                       # Number of data accesses
system.cpu.itb.walker.pwrStateResidencyTicks::UNDEFINED     60991614                       # Cumulative time (in ticks) in various power states
system.cpu.dtb_walker_cache.pwrStateResidencyTicks::UNDEFINED     60991614                       # Cumulative time (in ticks) in various power states
system.cpu.dtb_walker_cache.blocked_cycles::no_mshrs            0                       # number of cycles access was blocked
system.cpu.dtb_walker_cache.blocked_cycles::no_targets            0                       # number of cycles access was blocked
system.cpu.dtb_walker_cache.blocked::no_mshrs            0                       # number of cycles access was blocked
system.cpu.dtb_walker_cache.blocked::no_targets            0                       # number of cycles access was blocked
system.cpu.dtb_walker_cache.avg_blocked_cycles::no_mshrs          nan                       # average number of cycles each access was blocked
system.cpu.dtb_walker_cache.avg_blocked_cycles::no_targets          nan                       # average number of cycles each access was blocked
system.cpu.dtb_walker_cache.replacements            0                       # number of replacements
system.cpu.dtb_walker_cache.tags.pwrStateResidencyTicks::UNDEFINED     60991614                       # Cumulative time (in ticks) in various power states
system.cpu.dtb_walker_cache.tags.tagsinuse            0                       # Cycle average of tags in use
system.cpu.dtb_walker_cache.tags.total_refs            0                       # Total number of references to valid blocks.
system.cpu.dtb_walker_cache.tags.sampled_refs            0                       # Sample count of references to valid blocks.
system.cpu.dtb_walker_cache.tags.avg_refs          nan                       # Average number of references to valid blocks.
system.cpu.dtb_walker_cache.tags.warmup_cycle            0                       # Cycle when the warmup percentage was hit.
system.cpu.dtb_walker_cache.tags.tag_accesses            0                       # Number of tag accesses
system.cpu.dtb_walker_cache.tags.data_accesses            0                       # Number of data accesses
system.cpu.dcache.pwrStateResidencyTicks::UNDEFINED     60991614                       # Cumulative time (in ticks) in various power states
system.cpu.dcache.demand_hits::.cpu.data        91216                       # number of demand (read+write) hits
system.cpu.dcache.demand_hits::total            91216                       # number of demand (read+write) hits
system.cpu.dcache.overall_hits::.cpu.data        91216                       # number of overall hits
system.cpu.dcache.overall_hits::total           91216                       # number of overall hits
system.cpu.dcache.demand_misses::.cpu.data           53                       # number of demand (read+write) misses
system.cpu.dcache.demand_misses::total             53                       # number of demand (read+write) misses
system.cpu.dcache.overall_misses::.cpu.data           53                       # number of overall misses
system.cpu.dcache.overall_misses::total            53                       # number of overall misses
system.cpu.dcache.demand_miss_latency::.cpu.data      4121581                       # number of demand (read+write) miss cycles
system.cpu.dcache.demand_miss_latency::total      4121581                       # number of demand (read+write) miss cycles
system.cpu.dcache.overall_miss_latency::.cpu.data      4121581                       # number of overall miss cycles
system.cpu.dcache.overall_miss_latency::total      4121581                       # number of overall miss cycles
system.cpu.dcache.demand_accesses::.cpu.data        91269                       # number of demand (read+write) accesses
system.cpu.dcache.demand_accesses::total        91269                       # number of demand (read+write) accesses
system.cpu.dcache.overall_accesses::.cpu.data        91269                       # number of overall (read+write) accesses
system.cpu.dcache.overall_accesses::total        91269                       # number of overall (read+write) accesses
system.cpu.dcache.demand_miss_rate::.cpu.data     0.000581                       # miss rate for demand accesses
system.cpu.dcache.demand_miss_rate::total     0.000581                       # miss rate for demand accesses
system.cpu.dcache.overall_miss_rate::.cpu.data     0.000581                       # miss rate for overall accesses
system.cpu.dcache.overall_miss_rate::total     0.000581                       # miss rate for overall accesses
system.cpu.dcache.demand_avg_miss_latency::.cpu.data 77765.679245                       # average overall miss latency
system.cpu.dcache.demand_avg_miss_latency::total 77765.679245                       # average overall miss latency
system.cpu.dcache.overall_avg_miss_latency::.cpu.data 77765.679245                       # average overall miss latency
system.cpu.dcache.overall_avg_miss_latency::total 77765.679245                       # average overall miss latency
system.cpu.dcache.blocked_cycles::no_mshrs          135                       # number of cycles access was blocked
system.cpu.dcache.blocked_cycles::no_targets            0                       # number of cycles access was blocked
system.cpu.dcache.blocked::no_mshrs                 1                       # number of cycles access was blocked
system.cpu.dcache.blocked::no_targets               0                       # number of cycles access was blocked
system.cpu.dcache.avg_blocked_cycles::no_mshrs          135                       # average number of cycles each access was blocked
system.cpu.dcache.avg_blocked_cycles::no_targets          nan                       # average number of cycles each access was blocked
system.cpu.dcache.writebacks::.writebacks            5                       # number of writebacks
system.cpu.dcache.writebacks::total                 5                       # number of writebacks
system.cpu.dcache.demand_mshr_hits::.cpu.data           14                       # number of demand (read+write) MSHR hits
system.cpu.dcache.demand_mshr_hits::total           14                       # number of demand (read+write) MSHR hits
system.cpu.dcache.overall_mshr_hits::.cpu.data           14                       # number of overall MSHR hits
system.cpu.dcache.overall_mshr_hits::total           14                       # number of overall MSHR hits
system.cpu.dcache.demand_mshr_misses::.cpu.data           39                       # number of demand (read+write) MSHR misses
system.cpu.dcache.demand_mshr_misses::total           39                       # number of demand (read+write) MSHR misses
system.cpu.dcache.overall_mshr_misses::.cpu.data           39                       # number of overall MSHR misses
system.cpu.dcache.overall_mshr_misses::total           39                       # number of overall MSHR misses
system.cpu.dcache.demand_mshr_miss_latency::.cpu.data      3219520                       # number of demand (read+write) MSHR miss cycles
system.cpu.dcache.demand_mshr_miss_latency::total      3219520                       # number of demand (read+write) MSHR miss cycles
system.cpu.dcache.overall_mshr_miss_latency::.cpu.data      3219520                       # number of overall MSHR miss cycles
system.cpu.dcache.overall_mshr_miss_latency::total      3219520                       # number of overall MSHR miss cycles
system.cpu.dcache.demand_mshr_miss_rate::.cpu.data     0.000427                       # mshr miss rate for demand accesses
system.cpu.dcache.demand_mshr_miss_rate::total     0.000427                       # mshr miss rate for demand accesses
system.cpu.dcache.overall_mshr_miss_rate::.cpu.data     0.000427                       # mshr miss rate for overall accesses
system.cpu.dcache.overall_mshr_miss_rate::total     0.000427                       # mshr miss rate for overall accesses
system.cpu.dcache.demand_avg_mshr_miss_latency::.cpu.data 82551.794872                       # average overall mshr miss latency
system.cpu.dcache.demand_avg_mshr_miss_latency::total 82551.794872                       # average overall mshr miss latency
system.cpu.dcache.overall_avg_mshr_miss_latency::.cpu.data 82551.794872                       # average overall mshr miss latency
system.cpu.dcache.overall_avg_mshr_miss_latency::total 82551.794872                       # average overall mshr miss latency
system.cpu.dcache.replacements                     14                       # number of replacements
system.cpu.dcache.ReadReq_hits::.cpu.data        22953                       # number of ReadReq hits
system.cpu.dcache.ReadReq_hits::total           22953                       # number of ReadReq hits
system.cpu.dcache.ReadReq_misses::.cpu.data           41                       # number of ReadReq misses
system.cpu.dcache.ReadReq_misses::total            41                       # number of ReadReq misses
system.cpu.dcache.ReadReq_miss_latency::.cpu.data      3195508                       # number of ReadReq miss cycles
system.cpu.dcache.ReadReq_miss_latency::total      3195508                       # number of ReadReq miss cycles
system.cpu.dcache.ReadReq_accesses::.cpu.data        22994                       # number of ReadReq accesses(hits+misses)
system.cpu.dcache.ReadReq_accesses::total        22994                       # number of ReadReq accesses(hits+misses)
system.cpu.dcache.ReadReq_miss_rate::.cpu.data     0.001783                       # miss rate for ReadReq accesses
system.cpu.dcache.ReadReq_miss_rate::total     0.001783                       # miss rate for ReadReq accesses
system.cpu.dcache.ReadReq_avg_miss_latency::.cpu.data 77939.219512                       # average ReadReq miss latency
system.cpu.dcache.ReadReq_avg_miss_latency::total 77939.219512                       # average ReadReq miss latency
system.cpu.dcache.ReadReq_mshr_hits::.cpu.data           14                       # number of ReadReq MSHR hits
system.cpu.dcache.ReadReq_mshr_hits::total           14                       # number of ReadReq MSHR hits
system.cpu.dcache.ReadReq_mshr_misses::.cpu.data           27                       # number of ReadReq MSHR misses
system.cpu.dcache.ReadReq_mshr_misses::total           27                       # number of ReadReq MSHR misses
system.cpu.dcache.ReadReq_mshr_miss_latency::.cpu.data      2303244                       # number of ReadReq MSHR miss cycles
system.cpu.dcache.ReadReq_mshr_miss_latency::total      2303244                       # number of ReadReq MSHR miss cycles
system.cpu.dcache.ReadReq_mshr_miss_rate::.cpu.data     0.001174                       # mshr miss rate for ReadReq accesses
system.cpu.dcache.ReadReq_mshr_miss_rate::total     0.001174                       # mshr miss rate for ReadReq accesses
system.cpu.dcache.ReadReq_avg_mshr_miss_latency::.cpu.data 85305.333333                       # average ReadReq mshr miss latency
system.cpu.dcache.ReadReq_avg_mshr_miss_latency::total 85305.333333                       # average ReadReq mshr miss latency
system.cpu.dcache.WriteReq_hits::.cpu.data        68263                       # number of WriteReq hits
system.cpu.dcache.WriteReq_hits::total          68263                       # number of WriteReq hits
system.cpu.dcache.WriteReq_misses::.cpu.data           12                       # number of WriteReq misses
system.cpu.dcache.WriteReq_misses::total           12                       # number of WriteReq misses
system.cpu.dcache.WriteReq_miss_latency::.cpu.data       926073                       # number of WriteReq miss cycles
system.cpu.dcache.WriteReq_miss_latency::total       926073                       # number of WriteReq miss cycles
system.cpu.dcache.WriteReq_accesses::.cpu.data        68275                       # number of WriteReq accesses(hits+misses)
system.cpu.dcache.WriteReq_accesses::total        68275                       # number of WriteReq accesses(hits+misses)
system.cpu.dcache.WriteReq_miss_rate::.cpu.data     0.000176                       # miss rate for WriteReq accesses
system.cpu.dcache.WriteReq_miss_rate::total     0.000176                       # miss rate for WriteReq accesses
system.cpu.dcache.WriteReq_avg_miss_latency::.cpu.data 77172.750000                       # average WriteReq miss latency
system.cpu.dcache.WriteReq_avg_miss_latency::total 77172.750000                       # average WriteReq miss latency
system.cpu.dcache.WriteReq_mshr_misses::.cpu.data           12                       # number of WriteReq MSHR misses
system.cpu.dcache.WriteReq_mshr_misses::total           12                       # number of WriteReq MSHR misses
system.cpu.dcache.WriteReq_mshr_miss_latency::.cpu.data       916276                       # number of WriteReq MSHR miss cycles
system.cpu.dcache.WriteReq_mshr_miss_latency::total       916276                       # number of WriteReq MSHR miss cycles
system.cpu.dcache.WriteReq_mshr_miss_rate::.cpu.data     0.000176                       # mshr miss rate for WriteReq accesses
system.cpu.dcache.WriteReq_mshr_miss_rate::total     0.000176                       # mshr miss rate for WriteReq accesses
system.cpu.dcache.WriteReq_avg_mshr_miss_latency::.cpu.data 76356.333333                       # average WriteReq mshr miss latency
system.cpu.dcache.WriteReq_avg_mshr_miss_latency::total 76356.333333                       # average WriteReq mshr miss latency
system.cpu.dcache.tags.pwrStateResidencyTicks::UNDEFINED     60991614                       # Cumulative time (in ticks) in various power states
system.cpu.dcache.tags.tagsinuse           758.835468                       # Cycle average of tags in use
system.cpu.dcache.tags.total_refs             1622900                       # Total number of references to valid blocks.
system.cpu.dcache.tags.sampled_refs               789                       # Sample count of references to valid blocks.
system.cpu.dcache.tags.avg_refs           2056.907478                       # Average number of references to valid blocks.
system.cpu.dcache.tags.warmup_cycle                 0                       # Cycle when the warmup percentage was hit.
system.cpu.dcache.tags.occ_blocks::.cpu.data   758.835468                       # Average occupied blocks per requestor
system.cpu.dcache.tags.occ_percent::.cpu.data     0.741050                       # Average percentage of cache occupancy
system.cpu.dcache.tags.occ_percent::total     0.741050                       # Average percentage of cache occupancy
system.cpu.dcache.tags.occ_task_id_blocks::1024          775                       # Occupied blocks per task id
system.cpu.dcache.tags.age_task_id_blocks_1024::0           18                       # Occupied blocks per task id
system.cpu.dcache.tags.age_task_id_blocks_1024::1           21                       # Occupied blocks per task id
system.cpu.dcache.tags.age_task_id_blocks_1024::2          401                       # Occupied blocks per task id
system.cpu.dcache.tags.age_task_id_blocks_1024::3          335                       # Occupied blocks per task id
system.cpu.dcache.tags.occ_task_id_percent::1024     0.756836                       # Percentage of cache occupancy per task id
system.cpu.dcache.tags.tag_accesses            182577                       # Number of tag accesses
system.cpu.dcache.tags.data_accesses           182577                       # Number of data accesses

---------- End Simulation Statistics   ----------
