
---------- Begin Simulation Statistics ----------
final_tick                                12440848000                       # Number of ticks from beginning of simulation (restored from checkpoints and never reset)
host_inst_rate                                  98656                       # Simulator instruction rate (inst/s)
host_mem_usage                                 702244                       # Number of bytes of host memory used
host_op_rate                                   180225                       # Simulator op (including micro ops) rate (op/s)
host_seconds                                     1.52                       # Real time elapsed on the host
host_tick_rate                             8185372098                       # Simulator tick rate (ticks/s)
sim_freq                                 1000000000000                       # Frequency of simulated ticks
sim_insts                                      149928                       # Number of instructions simulated
sim_ops                                        273912                       # Number of ops (including micro ops) simulated
sim_seconds                                  0.012441                       # Number of seconds simulated
sim_ticks                                 12440848000                       # Number of ticks simulated
system.cpu.Branches                             31793                       # Number of branches fetched
system.cpu.committedInsts                      149928                       # Number of instructions committed
system.cpu.committedOps                        273912                       # Number of ops (including micro ops) committed
system.cpu.dtb.rdAccesses                       37507                       # TLB accesses on read requests
system.cpu.dtb.rdMisses                            72                       # TLB misses on read requests
system.cpu.dtb.wrAccesses                       10637                       # TLB accesses on write requests
system.cpu.dtb.wrMisses                            15                       # TLB misses on write requests
system.cpu.idle_fraction                     0.000000                       # Percentage of idle cycles
system.cpu.itb.rdAccesses                           0                       # TLB accesses on read requests
system.cpu.itb.rdMisses                             0                       # TLB misses on read requests
system.cpu.itb.wrAccesses                      193870                       # TLB accesses on write requests
system.cpu.itb.wrMisses                           107                       # TLB misses on write requests
system.cpu.not_idle_fraction                 1.000000                       # Percentage of non-idle cycles
system.cpu.numCycles                         24881696                       # number of cpu cycles simulated
system.cpu.numWorkItemsCompleted                    0                       # number of work items this cpu completed
system.cpu.numWorkItemsStarted                      0                       # number of work items this cpu started
system.cpu.num_busy_cycles               24881695.998000                       # Number of busy cycles
system.cpu.num_cc_register_reads               181264                       # number of times the CC registers were read
system.cpu.num_cc_register_writes              116117                       # number of times the CC registers were written
system.cpu.num_conditional_control_insts        28715                       # number of instructions that are conditional controls
system.cpu.num_fp_alu_accesses                   7245                       # Number of float alu accesses
system.cpu.num_fp_insts                          7245                       # number of float instructions
system.cpu.num_fp_register_reads                11765                       # number of times the floating registers were read
system.cpu.num_fp_register_writes                5589                       # number of times the floating registers were written
system.cpu.num_func_calls                        1318                       # number of times a function call or return occured
system.cpu.num_idle_cycles                   0.002000                       # Number of idle cycles
system.cpu.num_int_alu_accesses                268176                       # Number of integer alu accesses
system.cpu.num_int_insts                       268176                       # number of integer instructions
system.cpu.num_int_register_reads              514412                       # number of times the integer registers were read
system.cpu.num_int_register_writes             227780                       # number of times the integer registers were written
system.cpu.num_load_insts                       37503                       # Number of load instructions
system.cpu.num_mem_refs                         48140                       # number of memory refs
system.cpu.num_store_insts                      10637                       # Number of store instructions
system.cpu.num_vec_alu_accesses                     0                       # Number of vector alu accesses
system.cpu.num_vec_insts                            0                       # number of vector instructions
system.cpu.num_vec_register_reads                   0                       # number of times the vector registers were read
system.cpu.num_vec_register_writes                  0                       # number of times the vector registers were written
system.cpu.op_class::No_OpClass                  1499      0.55%      0.55% # Class of executed instruction
system.cpu.op_class::IntAlu                    218748     79.86%     80.41% # Class of executed instruction
system.cpu.op_class::IntMult                       23      0.01%     80.42% # Class of executed instruction
system.cpu.op_class::IntDiv                      1257      0.46%     80.88% # Class of executed instruction
system.cpu.op_class::FloatAdd                     156      0.06%     80.93% # Class of executed instruction
system.cpu.op_class::FloatCmp                       0      0.00%     80.93% # Class of executed instruction
system.cpu.op_class::FloatCvt                      32      0.01%     80.94% # Class of executed instruction
system.cpu.op_class::FloatMult                      0      0.00%     80.94% # Class of executed instruction
system.cpu.op_class::FloatMultAcc                   0      0.00%     80.94% # Class of executed instruction
system.cpu.op_class::FloatDiv                       0      0.00%     80.94% # Class of executed instruction
system.cpu.op_class::FloatMisc                      0      0.00%     80.94% # Class of executed instruction
system.cpu.op_class::FloatSqrt                      0      0.00%     80.94% # Class of executed instruction
system.cpu.op_class::SimdAdd                      872      0.32%     81.26% # Class of executed instruction
system.cpu.op_class::SimdAddAcc                     0      0.00%     81.26% # Class of executed instruction
system.cpu.op_class::SimdAlu                      877      0.32%     81.58% # Class of executed instruction
system.cpu.op_class::SimdCmp                        0      0.00%     81.58% # Class of executed instruction
system.cpu.op_class::SimdCvt                     1144      0.42%     82.00% # Class of executed instruction
system.cpu.op_class::SimdMisc                     824      0.30%     82.30% # Class of executed instruction
system.cpu.op_class::SimdMult                       0      0.00%     82.30% # Class of executed instruction
system.cpu.op_class::SimdMultAcc                    0      0.00%     82.30% # Class of executed instruction
system.cpu.op_class::SimdShift                    337      0.12%     82.42% # Class of executed instruction
system.cpu.op_class::SimdShiftAcc                   0      0.00%     82.42% # Class of executed instruction
system.cpu.op_class::SimdDiv                        0      0.00%     82.42% # Class of executed instruction
system.cpu.op_class::SimdSqrt                       0      0.00%     82.42% # Class of executed instruction
system.cpu.op_class::SimdFloatAdd                   0      0.00%     82.42% # Class of executed instruction
system.cpu.op_class::SimdFloatAlu                   0      0.00%     82.42% # Class of executed instruction
system.cpu.op_class::SimdFloatCmp                   0      0.00%     82.42% # Class of executed instruction
system.cpu.op_class::SimdFloatCvt                   3      0.00%     82.43% # Class of executed instruction
system.cpu.op_class::SimdFloatDiv                   0      0.00%     82.43% # Class of executed instruction
system.cpu.op_class::SimdFloatMisc                  0      0.00%     82.43% # Class of executed instruction
system.cpu.op_class::SimdFloatMult                  0      0.00%     82.43% # Class of executed instruction
system.cpu.op_class::SimdFloatMultAcc               0      0.00%     82.43% # Class of executed instruction
system.cpu.op_class::SimdFloatSqrt                  0      0.00%     82.43% # Class of executed instruction
system.cpu.op_class::SimdReduceAdd                  0      0.00%     82.43% # Class of executed instruction
system.cpu.op_class::SimdReduceAlu                  0      0.00%     82.43% # Class of executed instruction
system.cpu.op_class::SimdReduceCmp                  0      0.00%     82.43% # Class of executed instruction
system.cpu.op_class::SimdFloatReduceAdd             0      0.00%     82.43% # Class of executed instruction
system.cpu.op_class::SimdFloatReduceCmp             0      0.00%     82.43% # Class of executed instruction
system.cpu.op_class::SimdAes                        0      0.00%     82.43% # Class of executed instruction
system.cpu.op_class::SimdAesMix                     0      0.00%     82.43% # Class of executed instruction
system.cpu.op_class::SimdSha1Hash                   0      0.00%     82.43% # Class of executed instruction
system.cpu.op_class::SimdSha1Hash2                  0      0.00%     82.43% # Class of executed instruction
system.cpu.op_class::SimdSha256Hash                 0      0.00%     82.43% # Class of executed instruction
system.cpu.op_class::SimdSha256Hash2                0      0.00%     82.43% # Class of executed instruction
system.cpu.op_class::SimdShaSigma2                  0      0.00%     82.43% # Class of executed instruction
system.cpu.op_class::SimdShaSigma3                  0      0.00%     82.43% # Class of executed instruction
system.cpu.op_class::SimdPredAlu                    0      0.00%     82.43% # Class of executed instruction
system.cpu.op_class::MemRead                    36123     13.19%     95.61% # Class of executed instruction
system.cpu.op_class::MemWrite                    9596      3.50%     99.12% # Class of executed instruction
system.cpu.op_class::FloatMemRead                1380      0.50%     99.62% # Class of executed instruction
system.cpu.op_class::FloatMemWrite               1041      0.38%    100.00% # Class of executed instruction
system.cpu.op_class::IprAccess                      0      0.00%    100.00% # Class of executed instruction
system.cpu.op_class::InstPrefetch                   0      0.00%    100.00% # Class of executed instruction
system.cpu.op_class::total                     273912                       # Class of executed instruction
system.cpu.workload.numSyscalls                    29                       # Number of system calls
system.membus.snoop_filter.hit_multi_requests            0                       # Number of requests hitting in the snoop filter with multiple (>1) holders of the requested data.
system.membus.snoop_filter.hit_multi_snoops            0                       # Number of snoops hitting in the snoop filter with multiple (>1) holders of the requested data.
system.membus.snoop_filter.hit_single_requests            0                       # Number of requests hitting in the snoop filter with a single holder of the requested data.
system.membus.snoop_filter.hit_single_snoops            0                       # Number of snoops hitting in the snoop filter with a single holder of the requested data.
system.membus.snoop_filter.tot_requests             0                       # Total number of requests made to the snoop filter.
system.membus.snoop_filter.tot_snoops               0                       # Total number of snoops made to the snoop filter.
system.membus.pwrStateResidencyTicks::UNDEFINED  12440848000                       # Cumulative time (in ticks) in various power states
system.membus.trans_dist::ReadReq              231377                       # Transaction distribution
system.membus.trans_dist::ReadResp             231377                       # Transaction distribution
system.membus.trans_dist::WriteReq              10637                       # Transaction distribution
system.membus.trans_dist::WriteResp             10637                       # Transaction distribution
system.membus.pkt_count_system.cpu.icache_port::system.mem_ctrls.port       387740                       # Packet count per connected master and slave (bytes)
system.membus.pkt_count_system.cpu.icache_port::total       387740                       # Packet count per connected master and slave (bytes)
system.membus.pkt_count_system.cpu.dcache_port::system.mem_ctrls.port        96288                       # Packet count per connected master and slave (bytes)
system.membus.pkt_count_system.cpu.dcache_port::total        96288                       # Packet count per connected master and slave (bytes)
system.membus.pkt_count::total                 484028                       # Packet count per connected master and slave (bytes)
system.membus.pkt_size_system.cpu.icache_port::system.mem_ctrls.port      1550960                       # Cumulative packet size per connected master and slave (bytes)
system.membus.pkt_size_system.cpu.icache_port::total      1550960                       # Cumulative packet size per connected master and slave (bytes)
system.membus.pkt_size_system.cpu.dcache_port::system.mem_ctrls.port       287197                       # Cumulative packet size per connected master and slave (bytes)
system.membus.pkt_size_system.cpu.dcache_port::total       287197                       # Cumulative packet size per connected master and slave (bytes)
system.membus.pkt_size::total                 1838157                       # Cumulative packet size per connected master and slave (bytes)
system.membus.snoops                                0                       # Total snoops (count)
system.membus.snoopTraffic                          0                       # Total snoop traffic (bytes)
system.membus.snoop_fanout::samples            242014                       # Request fanout histogram
system.membus.snoop_fanout::mean                    0                       # Request fanout histogram
system.membus.snoop_fanout::stdev                   0                       # Request fanout histogram
system.membus.snoop_fanout::underflows              0      0.00%      0.00% # Request fanout histogram
system.membus.snoop_fanout::0                  242014    100.00%    100.00% # Request fanout histogram
system.membus.snoop_fanout::1                       0      0.00%    100.00% # Request fanout histogram
system.membus.snoop_fanout::overflows               0      0.00%    100.00% # Request fanout histogram
system.membus.snoop_fanout::min_value               0                       # Request fanout histogram
system.membus.snoop_fanout::max_value               0                       # Request fanout histogram
system.membus.snoop_fanout::total              242014                       # Request fanout histogram
system.membus.reqLayer2.occupancy           252651000                       # Layer occupancy (ticks)
system.membus.reqLayer2.utilization               2.0                       # Layer utilization (%)
system.membus.respLayer1.occupancy          441424000                       # Layer occupancy (ticks)
system.membus.respLayer1.utilization              3.5                       # Layer utilization (%)
system.membus.respLayer2.occupancy           98573500                       # Layer occupancy (ticks)
system.membus.respLayer2.utilization              0.8                       # Layer utilization (%)
system.voltage_domain.voltage                       1                       # Voltage in Volts
system.clk_domain.clock                          1000                       # Clock period in ticks
system.cpu_voltage_domain.voltage                   1                       # Voltage in Volts
system.mem_ctrls.pwrStateResidencyTicks::UNDEFINED  12440848000                       # Cumulative time (in ticks) in various power states
system.mem_ctrls.bytes_read::.cpu.inst        1550960                       # Number of bytes read from this memory
system.mem_ctrls.bytes_read::.cpu.data         206797                       # Number of bytes read from this memory
system.mem_ctrls.bytes_read::total            1757757                       # Number of bytes read from this memory
system.mem_ctrls.bytes_inst_read::.cpu.inst      1550960                       # Number of instructions bytes read from this memory
system.mem_ctrls.bytes_inst_read::total       1550960                       # Number of instructions bytes read from this memory
system.mem_ctrls.bytes_written::.cpu.data        80400                       # Number of bytes written to this memory
system.mem_ctrls.bytes_written::total           80400                       # Number of bytes written to this memory
system.mem_ctrls.num_reads::.cpu.inst          193870                       # Number of read requests responded to by this memory
system.mem_ctrls.num_reads::.cpu.data           37507                       # Number of read requests responded to by this memory
system.mem_ctrls.num_reads::total              231377                       # Number of read requests responded to by this memory
system.mem_ctrls.num_writes::.cpu.data          10637                       # Number of write requests responded to by this memory
system.mem_ctrls.num_writes::total              10637                       # Number of write requests responded to by this memory
system.mem_ctrls.bw_read::.cpu.inst         124666743                       # Total read bandwidth from this memory (bytes/s)
system.mem_ctrls.bw_read::.cpu.data          16622420                       # Total read bandwidth from this memory (bytes/s)
system.mem_ctrls.bw_read::total             141289163                       # Total read bandwidth from this memory (bytes/s)
system.mem_ctrls.bw_inst_read::.cpu.inst    124666743                       # Instruction read bandwidth from this memory (bytes/s)
system.mem_ctrls.bw_inst_read::total        124666743                       # Instruction read bandwidth from this memory (bytes/s)
system.mem_ctrls.bw_write::.cpu.data          6462582                       # Write bandwidth from this memory (bytes/s)
system.mem_ctrls.bw_write::total              6462582                       # Write bandwidth from this memory (bytes/s)
system.mem_ctrls.bw_total::.cpu.inst        124666743                       # Total bandwidth to/from this memory (bytes/s)
system.mem_ctrls.bw_total::.cpu.data         23085002                       # Total bandwidth to/from this memory (bytes/s)
system.mem_ctrls.bw_total::total            147751745                       # Total bandwidth to/from this memory (bytes/s)
system.mem_ctrls.avgPriority_.cpu.inst::samples    193870.00                       # Average QoS priority value for accepted requests
system.mem_ctrls.avgPriority_.cpu.data::samples     36656.00                       # Average QoS priority value for accepted requests
system.mem_ctrls.priorityMinLatency      0.000000018750                       # per QoS priority minimum request to response latency (s)
system.mem_ctrls.priorityMaxLatency      0.009448928500                       # per QoS priority maximum request to response latency (s)
system.mem_ctrls.numReadWriteTurnArounds           53                       # Number of turnarounds from READ to WRITE
system.mem_ctrls.numWriteReadTurnArounds           53                       # Number of turnarounds from WRITE to READ
system.mem_ctrls.numStayReadState              473055                       # Number of times bus staying in READ state
system.mem_ctrls.numStayWriteState                799                       # Number of times bus staying in WRITE state
system.mem_ctrls.readReqs                      231377                       # Number of read requests accepted
system.mem_ctrls.writeReqs                      10637                       # Number of write requests accepted
system.mem_ctrls.readBursts                    231377                       # Number of DRAM read bursts, including those serviced by the write queue
system.mem_ctrls.writeBursts                    10637                       # Number of DRAM write bursts, including those merged in the write queue
system.mem_ctrls.servicedByWrQ                   1734                       # Number of DRAM read bursts serviced by the write queue
system.mem_ctrls.mergedWrBursts                  9754                       # Number of DRAM write bursts merged with an existing one
system.mem_ctrls.neitherReadNorWriteReqs            0                       # Number of requests that are neither read nor write
system.mem_ctrls.perBankRdBursts::0              9907                       # Per bank write bursts
system.mem_ctrls.perBankRdBursts::1              3640                       # Per bank write bursts
system.mem_ctrls.perBankRdBursts::2              8989                       # Per bank write bursts
system.mem_ctrls.perBankRdBursts::3              3963                       # Per bank write bursts
system.mem_ctrls.perBankRdBursts::4              3625                       # Per bank write bursts
system.mem_ctrls.perBankRdBursts::5              4019                       # Per bank write bursts
system.mem_ctrls.perBankRdBursts::6            110968                       # Per bank write bursts
system.mem_ctrls.perBankRdBursts::7             40572                       # Per bank write bursts
system.mem_ctrls.perBankRdBursts::8             24144                       # Per bank write bursts
system.mem_ctrls.perBankRdBursts::9              2318                       # Per bank write bursts
system.mem_ctrls.perBankRdBursts::10             5022                       # Per bank write bursts
system.mem_ctrls.perBankRdBursts::11             1998                       # Per bank write bursts
system.mem_ctrls.perBankRdBursts::12             2360                       # Per bank write bursts
system.mem_ctrls.perBankRdBursts::13             3804                       # Per bank write bursts
system.mem_ctrls.perBankRdBursts::14             1808                       # Per bank write bursts
system.mem_ctrls.perBankRdBursts::15             2506                       # Per bank write bursts
system.mem_ctrls.perBankWrBursts::0                 9                       # Per bank write bursts
system.mem_ctrls.perBankWrBursts::1                36                       # Per bank write bursts
system.mem_ctrls.perBankWrBursts::2                58                       # Per bank write bursts
system.mem_ctrls.perBankWrBursts::3                47                       # Per bank write bursts
system.mem_ctrls.perBankWrBursts::4                 0                       # Per bank write bursts
system.mem_ctrls.perBankWrBursts::5               109                       # Per bank write bursts
system.mem_ctrls.perBankWrBursts::6               242                       # Per bank write bursts
system.mem_ctrls.perBankWrBursts::7                 0                       # Per bank write bursts
system.mem_ctrls.perBankWrBursts::8                 0                       # Per bank write bursts
system.mem_ctrls.perBankWrBursts::9                 0                       # Per bank write bursts
system.mem_ctrls.perBankWrBursts::10                0                       # Per bank write bursts
system.mem_ctrls.perBankWrBursts::11                0                       # Per bank write bursts
system.mem_ctrls.perBankWrBursts::12              104                       # Per bank write bursts
system.mem_ctrls.perBankWrBursts::13              113                       # Per bank write bursts
system.mem_ctrls.perBankWrBursts::14              129                       # Per bank write bursts
system.mem_ctrls.perBankWrBursts::15                5                       # Per bank write bursts
system.mem_ctrls.avgRdQLen                       1.00                       # Average read queue length when enqueuing
system.mem_ctrls.avgWrQLen                      27.31                       # Average write queue length when enqueuing
system.mem_ctrls.totQLat                    921308250                       # Total ticks spent queuing
system.mem_ctrls.totBusLat                 1148215000                       # Total ticks spent in databus transfers
system.mem_ctrls.totMemAccLat              5227114500                       # Total ticks spent from burst creation until serviced by the DRAM
system.mem_ctrls.avgQLat                      4011.92                       # Average queueing delay per DRAM burst
system.mem_ctrls.avgBusLat                    5000.00                       # Average bus latency per DRAM burst
system.mem_ctrls.avgMemAccLat                22761.92                       # Average memory access latency per DRAM burst
system.mem_ctrls.numRdRetry                         0                       # Number of times read queue was full causing retry
system.mem_ctrls.numWrRetry                         0                       # Number of times write queue was full causing retry
system.mem_ctrls.readRowHits                   202301                       # Number of row buffer hits during reads
system.mem_ctrls.writeRowHits                     774                       # Number of row buffer hits during writes
system.mem_ctrls.readRowHitRate                 88.09                       # Row buffer hit rate for reads
system.mem_ctrls.writeRowHitRate                87.66                       # Row buffer hit rate for writes
system.mem_ctrls.readPktSize::0                  7818                       # Read request sizes (log2)
system.mem_ctrls.readPktSize::1                  2740                       # Read request sizes (log2)
system.mem_ctrls.readPktSize::2                  5521                       # Read request sizes (log2)
system.mem_ctrls.readPktSize::3                215298                       # Read request sizes (log2)
system.mem_ctrls.readPktSize::4                     0                       # Read request sizes (log2)
system.mem_ctrls.readPktSize::5                     0                       # Read request sizes (log2)
system.mem_ctrls.readPktSize::6                     0                       # Read request sizes (log2)
system.mem_ctrls.writePktSize::0                   86                       # Write request sizes (log2)
system.mem_ctrls.writePktSize::1                   51                       # Write request sizes (log2)
system.mem_ctrls.writePktSize::2                  947                       # Write request sizes (log2)
system.mem_ctrls.writePktSize::3                 9553                       # Write request sizes (log2)
system.mem_ctrls.writePktSize::4                    0                       # Write request sizes (log2)
system.mem_ctrls.writePktSize::5                    0                       # Write request sizes (log2)
system.mem_ctrls.writePktSize::6                    0                       # Write request sizes (log2)
system.mem_ctrls.rdQLenPdf::0                  229639                       # What read queue length does an incoming req see
system.mem_ctrls.rdQLenPdf::1                       4                       # What read queue length does an incoming req see
system.mem_ctrls.rdQLenPdf::2                       0                       # What read queue length does an incoming req see
system.mem_ctrls.rdQLenPdf::3                       0                       # What read queue length does an incoming req see
system.mem_ctrls.rdQLenPdf::4                       0                       # What read queue length does an incoming req see
system.mem_ctrls.rdQLenPdf::5                       0                       # What read queue length does an incoming req see
system.mem_ctrls.rdQLenPdf::6                       0                       # What read queue length does an incoming req see
system.mem_ctrls.rdQLenPdf::7                       0                       # What read queue length does an incoming req see
system.mem_ctrls.rdQLenPdf::8                       0                       # What read queue length does an incoming req see
system.mem_ctrls.rdQLenPdf::9                       0                       # What read queue length does an incoming req see
system.mem_ctrls.rdQLenPdf::10                      0                       # What read queue length does an incoming req see
system.mem_ctrls.rdQLenPdf::11                      0                       # What read queue length does an incoming req see
system.mem_ctrls.rdQLenPdf::12                      0                       # What read queue length does an incoming req see
system.mem_ctrls.rdQLenPdf::13                      0                       # What read queue length does an incoming req see
system.mem_ctrls.rdQLenPdf::14                      0                       # What read queue length does an incoming req see
system.mem_ctrls.rdQLenPdf::15                      0                       # What read queue length does an incoming req see
system.mem_ctrls.rdQLenPdf::16                      0                       # What read queue length does an incoming req see
system.mem_ctrls.rdQLenPdf::17                      0                       # What read queue length does an incoming req see
system.mem_ctrls.rdQLenPdf::18                      0                       # What read queue length does an incoming req see
system.mem_ctrls.rdQLenPdf::19                      0                       # What read queue length does an incoming req see
system.mem_ctrls.rdQLenPdf::20                      0                       # What read queue length does an incoming req see
system.mem_ctrls.rdQLenPdf::21                      0                       # What read queue length does an incoming req see
system.mem_ctrls.rdQLenPdf::22                      0                       # What read queue length does an incoming req see
system.mem_ctrls.rdQLenPdf::23                      0                       # What read queue length does an incoming req see
system.mem_ctrls.rdQLenPdf::24                      0                       # What read queue length does an incoming req see
system.mem_ctrls.rdQLenPdf::25                      0                       # What read queue length does an incoming req see
system.mem_ctrls.rdQLenPdf::26                      0                       # What read queue length does an incoming req see
system.mem_ctrls.rdQLenPdf::27                      0                       # What read queue length does an incoming req see
system.mem_ctrls.rdQLenPdf::28                      0                       # What read queue length does an incoming req see
system.mem_ctrls.rdQLenPdf::29                      0                       # What read queue length does an incoming req see
system.mem_ctrls.rdQLenPdf::30                      0                       # What read queue length does an incoming req see
system.mem_ctrls.rdQLenPdf::31                      0                       # What read queue length does an incoming req see
system.mem_ctrls.wrQLenPdf::0                       1                       # What write queue length does an incoming req see
system.mem_ctrls.wrQLenPdf::1                       1                       # What write queue length does an incoming req see
system.mem_ctrls.wrQLenPdf::2                       1                       # What write queue length does an incoming req see
system.mem_ctrls.wrQLenPdf::3                       1                       # What write queue length does an incoming req see
system.mem_ctrls.wrQLenPdf::4                       1                       # What write queue length does an incoming req see
system.mem_ctrls.wrQLenPdf::5                       1                       # What write queue length does an incoming req see
system.mem_ctrls.wrQLenPdf::6                       1                       # What write queue length does an incoming req see
system.mem_ctrls.wrQLenPdf::7                       1                       # What write queue length does an incoming req see
system.mem_ctrls.wrQLenPdf::8                       1                       # What write queue length does an incoming req see
system.mem_ctrls.wrQLenPdf::9                       1                       # What write queue length does an incoming req see
system.mem_ctrls.wrQLenPdf::10                      1                       # What write queue length does an incoming req see
system.mem_ctrls.wrQLenPdf::11                      1                       # What write queue length does an incoming req see
system.mem_ctrls.wrQLenPdf::12                      1                       # What write queue length does an incoming req see
system.mem_ctrls.wrQLenPdf::13                      1                       # What write queue length does an incoming req see
system.mem_ctrls.wrQLenPdf::14                      1                       # What write queue length does an incoming req see
system.mem_ctrls.wrQLenPdf::15                      3                       # What write queue length does an incoming req see
system.mem_ctrls.wrQLenPdf::16                      3                       # What write queue length does an incoming req see
system.mem_ctrls.wrQLenPdf::17                     54                       # What write queue length does an incoming req see
system.mem_ctrls.wrQLenPdf::18                     54                       # What write queue length does an incoming req see
system.mem_ctrls.wrQLenPdf::19                     54                       # What write queue length does an incoming req see
system.mem_ctrls.wrQLenPdf::20                     54                       # What write queue length does an incoming req see
system.mem_ctrls.wrQLenPdf::21                     54                       # What write queue length does an incoming req see
system.mem_ctrls.wrQLenPdf::22                     54                       # What write queue length does an incoming req see
system.mem_ctrls.wrQLenPdf::23                     54                       # What write queue length does an incoming req see
system.mem_ctrls.wrQLenPdf::24                     54                       # What write queue length does an incoming req see
system.mem_ctrls.wrQLenPdf::25                     54                       # What write queue length does an incoming req see
system.mem_ctrls.wrQLenPdf::26                     54                       # What write queue length does an incoming req see
system.mem_ctrls.wrQLenPdf::27                     54                       # What write queue length does an incoming req see
system.mem_ctrls.wrQLenPdf::28                     54                       # What write queue length does an incoming req see
system.mem_ctrls.wrQLenPdf::29                     54                       # What write queue length does an incoming req see
system.mem_ctrls.wrQLenPdf::30                     54                       # What write queue length does an incoming req see
system.mem_ctrls.wrQLenPdf::31                     53                       # What write queue length does an incoming req see
system.mem_ctrls.wrQLenPdf::32                     53                       # What write queue length does an incoming req see
system.mem_ctrls.wrQLenPdf::33                      0                       # What write queue length does an incoming req see
system.mem_ctrls.wrQLenPdf::34                      0                       # What write queue length does an incoming req see
system.mem_ctrls.wrQLenPdf::35                      0                       # What write queue length does an incoming req see
system.mem_ctrls.wrQLenPdf::36                      0                       # What write queue length does an incoming req see
system.mem_ctrls.wrQLenPdf::37                      0                       # What write queue length does an incoming req see
system.mem_ctrls.wrQLenPdf::38                      0                       # What write queue length does an incoming req see
system.mem_ctrls.wrQLenPdf::39                      0                       # What write queue length does an incoming req see
system.mem_ctrls.wrQLenPdf::40                      0                       # What write queue length does an incoming req see
system.mem_ctrls.wrQLenPdf::41                      0                       # What write queue length does an incoming req see
system.mem_ctrls.wrQLenPdf::42                      0                       # What write queue length does an incoming req see
system.mem_ctrls.wrQLenPdf::43                      0                       # What write queue length does an incoming req see
system.mem_ctrls.wrQLenPdf::44                      0                       # What write queue length does an incoming req see
system.mem_ctrls.wrQLenPdf::45                      0                       # What write queue length does an incoming req see
system.mem_ctrls.wrQLenPdf::46                      0                       # What write queue length does an incoming req see
system.mem_ctrls.wrQLenPdf::47                      0                       # What write queue length does an incoming req see
system.mem_ctrls.wrQLenPdf::48                      0                       # What write queue length does an incoming req see
system.mem_ctrls.wrQLenPdf::49                      0                       # What write queue length does an incoming req see
system.mem_ctrls.wrQLenPdf::50                      0                       # What write queue length does an incoming req see
system.mem_ctrls.wrQLenPdf::51                      0                       # What write queue length does an incoming req see
system.mem_ctrls.wrQLenPdf::52                      0                       # What write queue length does an incoming req see
system.mem_ctrls.wrQLenPdf::53                      0                       # What write queue length does an incoming req see
system.mem_ctrls.wrQLenPdf::54                      0                       # What write queue length does an incoming req see
system.mem_ctrls.wrQLenPdf::55                      0                       # What write queue length does an incoming req see
system.mem_ctrls.wrQLenPdf::56                      0                       # What write queue length does an incoming req see
system.mem_ctrls.wrQLenPdf::57                      0                       # What write queue length does an incoming req see
system.mem_ctrls.wrQLenPdf::58                      0                       # What write queue length does an incoming req see
system.mem_ctrls.wrQLenPdf::59                      0                       # What write queue length does an incoming req see
system.mem_ctrls.wrQLenPdf::60                      0                       # What write queue length does an incoming req see
system.mem_ctrls.wrQLenPdf::61                      0                       # What write queue length does an incoming req see
system.mem_ctrls.wrQLenPdf::62                      0                       # What write queue length does an incoming req see
system.mem_ctrls.wrQLenPdf::63                      0                       # What write queue length does an incoming req see
system.mem_ctrls.bytesPerActivate::samples        27412                       # Bytes accessed per row activation
system.mem_ctrls.bytesPerActivate::mean    538.051073                       # Bytes accessed per row activation
system.mem_ctrls.bytesPerActivate::gmean   326.748971                       # Bytes accessed per row activation
system.mem_ctrls.bytesPerActivate::stdev   413.987071                       # Bytes accessed per row activation
system.mem_ctrls.bytesPerActivate::0-127         6928     25.27%     25.27% # Bytes accessed per row activation
system.mem_ctrls.bytesPerActivate::128-255         3231     11.79%     37.06% # Bytes accessed per row activation
system.mem_ctrls.bytesPerActivate::256-383         2337      8.53%     45.59% # Bytes accessed per row activation
system.mem_ctrls.bytesPerActivate::384-511         1745      6.37%     51.95% # Bytes accessed per row activation
system.mem_ctrls.bytesPerActivate::512-639         1081      3.94%     55.90% # Bytes accessed per row activation
system.mem_ctrls.bytesPerActivate::640-767          547      2.00%     57.89% # Bytes accessed per row activation
system.mem_ctrls.bytesPerActivate::768-895         1147      4.18%     62.08% # Bytes accessed per row activation
system.mem_ctrls.bytesPerActivate::896-1023          820      2.99%     65.07% # Bytes accessed per row activation
system.mem_ctrls.bytesPerActivate::1024-1151         9576     34.93%    100.00% # Bytes accessed per row activation
system.mem_ctrls.bytesPerActivate::total        27412                       # Bytes accessed per row activation
system.mem_ctrls.rdPerTurnAround::samples           53                       # Reads before turning the bus around for writes
system.mem_ctrls.rdPerTurnAround::mean    4302.962264                       # Reads before turning the bus around for writes
system.mem_ctrls.rdPerTurnAround::stdev  14783.418035                       # Reads before turning the bus around for writes
system.mem_ctrls.rdPerTurnAround::0-4095           49     92.45%     92.45% # Reads before turning the bus around for writes
system.mem_ctrls.rdPerTurnAround::4096-8191            1      1.89%     94.34% # Reads before turning the bus around for writes
system.mem_ctrls.rdPerTurnAround::8192-12287            1      1.89%     96.23% # Reads before turning the bus around for writes
system.mem_ctrls.rdPerTurnAround::65536-69631            1      1.89%     98.11% # Reads before turning the bus around for writes
system.mem_ctrls.rdPerTurnAround::86016-90111            1      1.89%    100.00% # Reads before turning the bus around for writes
system.mem_ctrls.rdPerTurnAround::total            53                       # Reads before turning the bus around for writes
system.mem_ctrls.wrPerTurnAround::samples           53                       # Writes before turning the bus around for reads
system.mem_ctrls.wrPerTurnAround::mean      16.075472                       # Writes before turning the bus around for reads
system.mem_ctrls.wrPerTurnAround::gmean     16.071273                       # Writes before turning the bus around for reads
system.mem_ctrls.wrPerTurnAround::stdev      0.384760                       # Writes before turning the bus around for reads
system.mem_ctrls.wrPerTurnAround::16               51     96.23%     96.23% # Writes before turning the bus around for reads
system.mem_ctrls.wrPerTurnAround::18                2      3.77%    100.00% # Writes before turning the bus around for reads
system.mem_ctrls.wrPerTurnAround::total            53                       # Writes before turning the bus around for reads
system.mem_ctrls.bytesReadDRAM               14697152                       # Total number of bytes read from DRAM
system.mem_ctrls.bytesReadWrQ                  110976                       # Total number of bytes read from write queue
system.mem_ctrls.bytesWritten                   54528                       # Total number of bytes written to DRAM
system.mem_ctrls.bytesReadSys                 1757757                       # Total read bytes from the system interface side
system.mem_ctrls.bytesWrittenSys                80400                       # Total written bytes from the system interface side
system.mem_ctrls.avgRdBW                      1181.36                       # Average DRAM read bandwidth in MiByte/s
system.mem_ctrls.avgWrBW                         4.38                       # Average achieved write bandwidth in MiByte/s
system.mem_ctrls.avgRdBWSys                    141.29                       # Average system read bandwidth in MiByte/s
system.mem_ctrls.avgWrBWSys                      6.46                       # Average system write bandwidth in MiByte/s
system.mem_ctrls.peakBW                      12800.00                       # Theoretical peak bandwidth in MiByte/s
system.mem_ctrls.busUtil                         9.26                       # Data bus utilization in percentage
system.mem_ctrls.busUtilRead                     9.23                       # Data bus utilization in percentage for reads
system.mem_ctrls.busUtilWrite                    0.03                       # Data bus utilization in percentage for writes
system.mem_ctrls.totGap                   12440722000                       # Total gap between requests
system.mem_ctrls.avgGap                      51404.97                       # Average gap between requests
system.mem_ctrls.masterReadBytes::.cpu.inst      1550960                       # Per-master bytes read from memory
system.mem_ctrls.masterReadBytes::.cpu.data       193237                       # Per-master bytes read from memory
system.mem_ctrls.masterWriteBytes::.cpu.data         6365                       # Per-master bytes write to memory
system.mem_ctrls.masterReadRate::.cpu.inst 124666742.974433898926                       # Per-master bytes read from memory rate (Bytes/sec)
system.mem_ctrls.masterReadRate::.cpu.data 15532462.095831410959                       # Per-master bytes read from memory rate (Bytes/sec)
system.mem_ctrls.masterWriteRate::.cpu.data 511621.072775746521                       # Per-master bytes write to memory rate (Bytes/sec)
system.mem_ctrls.masterReadAccesses::.cpu.inst       193870                       # Per-master read serviced memory accesses
system.mem_ctrls.masterReadAccesses::.cpu.data        37507                       # Per-master read serviced memory accesses
system.mem_ctrls.masterWriteAccesses::.cpu.data        10637                       # Per-master write serviced memory accesses
system.mem_ctrls.masterReadTotalLat::.cpu.inst   4268038000                       # Per-master read total memory access latency
system.mem_ctrls.masterReadTotalLat::.cpu.data    959076500                       # Per-master read total memory access latency
system.mem_ctrls.masterWriteTotalLat::.cpu.data 334533586250                       # Per-master write total memory access latency
system.mem_ctrls.masterReadAvgLat::.cpu.inst     22014.95                       # Per-master read average memory access latency
system.mem_ctrls.masterReadAvgLat::.cpu.data     25570.60                       # Per-master read average memory access latency
system.mem_ctrls.masterWriteAvgLat::.cpu.data  31449994.01                       # Per-master write average memory access latency
system.mem_ctrls.pageHitRate                    88.09                       # Row buffer hit rate, read and write combined
system.mem_ctrls.rank1.actEnergy             27053460                       # Energy for activate commands per rank (pJ)
system.mem_ctrls.rank1.preEnergy             14364075                       # Energy for precharge commands per rank (pJ)
system.mem_ctrls.rank1.readEnergy           313874400                       # Energy for read commands per rank (pJ)
system.mem_ctrls.rank1.writeEnergy            1832220                       # Energy for write commands per rank (pJ)
system.mem_ctrls.rank1.refreshEnergy     981580080.000000                       # Energy for refresh commands per rank (pJ)
system.mem_ctrls.rank1.actBackEnergy       3806014830                       # Energy for active background per rank (pJ)
system.mem_ctrls.rank1.preBackEnergy       1572220800                       # Energy for precharge background per rank (pJ)
system.mem_ctrls.rank1.actPowerDownEnergy            0                       # Energy for active power-down per rank (pJ)
system.mem_ctrls.rank1.prePowerDownEnergy            0                       # Energy for precharge power-down per rank (pJ)
system.mem_ctrls.rank1.selfRefreshEnergy            0                       # Energy for self refresh per rank (pJ)
system.mem_ctrls.rank1.totalEnergy         6716939865                       # Total energy per rank (pJ)
system.mem_ctrls.rank1.averagePower        539.910130                       # Core power per rank (mW)
system.mem_ctrls.rank1.totalIdleTime                0                       # Total Idle time Per DRAM Rank
system.mem_ctrls.rank1.memoryStateTime::IDLE   4035293750                       # Time in different power states
system.mem_ctrls.rank1.memoryStateTime::REF    415220000                       # Time in different power states
system.mem_ctrls.rank1.memoryStateTime::SREF            0                       # Time in different power states
system.mem_ctrls.rank1.memoryStateTime::PRE_PDN            0                       # Time in different power states
system.mem_ctrls.rank1.memoryStateTime::ACT   7990334250                       # Time in different power states
system.mem_ctrls.rank1.memoryStateTime::ACT_PDN            0                       # Time in different power states
system.mem_ctrls.rank0.actEnergy            168725340                       # Energy for activate commands per rank (pJ)
system.mem_ctrls.rank0.preEnergy             89664465                       # Energy for precharge commands per rank (pJ)
system.mem_ctrls.rank0.readEnergy          1325776620                       # Energy for read commands per rank (pJ)
system.mem_ctrls.rank0.writeEnergy            2615220                       # Energy for write commands per rank (pJ)
system.mem_ctrls.rank0.refreshEnergy     981580080.000000                       # Energy for refresh commands per rank (pJ)
system.mem_ctrls.rank0.actBackEnergy       5500063380                       # Energy for active background per rank (pJ)
system.mem_ctrls.rank0.preBackEnergy        145653600                       # Energy for precharge background per rank (pJ)
system.mem_ctrls.rank0.actPowerDownEnergy            0                       # Energy for active power-down per rank (pJ)
system.mem_ctrls.rank0.prePowerDownEnergy            0                       # Energy for precharge power-down per rank (pJ)
system.mem_ctrls.rank0.selfRefreshEnergy            0                       # Energy for self refresh per rank (pJ)
system.mem_ctrls.rank0.totalEnergy         8214078705                       # Total energy per rank (pJ)
system.mem_ctrls.rank0.averagePower        660.250708                       # Core power per rank (mW)
system.mem_ctrls.rank0.totalIdleTime                0                       # Total Idle time Per DRAM Rank
system.mem_ctrls.rank0.memoryStateTime::IDLE    302176750                       # Time in different power states
system.mem_ctrls.rank0.memoryStateTime::REF    415220000                       # Time in different power states
system.mem_ctrls.rank0.memoryStateTime::SREF            0                       # Time in different power states
system.mem_ctrls.rank0.memoryStateTime::PRE_PDN            0                       # Time in different power states
system.mem_ctrls.rank0.memoryStateTime::ACT  11723451250                       # Time in different power states
system.mem_ctrls.rank0.memoryStateTime::ACT_PDN            0                       # Time in different power states
system.cpu_clk_domain.clock                       500                       # Clock period in ticks
system.cpu.numPwrStateTransitions                   1                       # Number of power state transitions
system.cpu.pwrStateResidencyTicks::ON     12440848000                       # Cumulative time (in ticks) in various power states
system.cpu.dtb.walker.pwrStateResidencyTicks::UNDEFINED  12440848000                       # Cumulative time (in ticks) in various power states
system.cpu.interrupts.clk_domain.clock           8000                       # Clock period in ticks
system.cpu.itb.walker.pwrStateResidencyTicks::UNDEFINED  12440848000                       # Cumulative time (in ticks) in various power states

---------- End Simulation Statistics   ----------
