
---------- Begin Simulation Statistics ----------
final_tick                                 1546463322                       # Number of ticks from beginning of simulation (restored from checkpoints and never reset)
host_inst_rate                                  64904                       # Simulator instruction rate (inst/s)
host_mem_usage                                 696324                       # Number of bytes of host memory used
host_op_rate                                   132038                       # Simulator op (including micro ops) rate (op/s)
host_seconds                                    74.91                       # Real time elapsed on the host
host_tick_rate                               20643344                       # Simulator tick rate (ticks/s)
sim_freq                                 1000000000000                       # Frequency of simulated ticks
sim_insts                                     4862181                       # Number of instructions simulated
sim_ops                                       9891385                       # Number of ops (including micro ops) simulated
sim_seconds                                  0.001546                       # Number of seconds simulated
sim_ticks                                  1546463322                       # Number of ticks simulated
system.cpu.branchPred.BTBCorrect                    0                       # Number of correct BTB predictions (this stat may not work properly.
system.cpu.branchPred.BTBHitPct              0.000000                       # BTB Hit Percentage
system.cpu.branchPred.BTBHits                       0                       # Number of BTB hits
system.cpu.branchPred.BTBLookups              1123941                       # Number of BTB lookups
system.cpu.branchPred.RASInCorrect                  6                       # Number of incorrect RAS predictions.
system.cpu.branchPred.condIncorrect             55549                       # Number of conditional branches incorrect
system.cpu.branchPred.condPredicted            888233                       # Number of conditional branches predicted
system.cpu.branchPred.indirectHits             722743                       # Number of indirect target hits.
system.cpu.branchPred.indirectLookups         1123941                       # Number of indirect predictor lookups.
system.cpu.branchPred.indirectMisses           401198                       # Number of indirect misses.
system.cpu.branchPred.lookups                 1493314                       # Number of BP lookups
system.cpu.branchPred.usedRAS                  307203                       # Number of times the RAS was used to get a target.
system.cpu.branchPredindirectMispredicted        36408                       # Number of mispredicted indirect branches.
system.cpu.cc_regfile_reads                   4085067                       # number of cc regfile reads
system.cpu.cc_regfile_writes                  2257083                       # number of cc regfile writes
system.cpu.commit.amos                              0                       # Number of atomic instructions committed
system.cpu.commit.branchMispredicts             55706                       # The number of times a branch was mispredicted
system.cpu.commit.branches                    1122938                       # Number of branches committed
system.cpu.commit.bw_lim_events                588775                       # number cycles where commit BW limit reached
system.cpu.commit.commitNonSpecStalls              44                       # The number of times commit has been forced to stall to communicate backwards
system.cpu.commit.commitSquashedInsts         1591487                       # The number of squashed insts skipped by commit
system.cpu.commit.committedInsts              4862181                       # Number of instructions committed
system.cpu.commit.committedOps                9891385                       # Number of ops (including micro ops) committed
system.cpu.commit.committed_per_cycle::samples      3828859                       # Number of insts commited each cycle
system.cpu.commit.committed_per_cycle::mean     2.583377                       # Number of insts commited each cycle
system.cpu.commit.committed_per_cycle::stdev     2.850219                       # Number of insts commited each cycle
system.cpu.commit.committed_per_cycle::underflows            0      0.00%      0.00% # Number of insts commited each cycle
system.cpu.commit.committed_per_cycle::0      1358285     35.47%     35.47% # Number of insts commited each cycle
system.cpu.commit.committed_per_cycle::1       471525     12.32%     47.79% # Number of insts commited each cycle
system.cpu.commit.committed_per_cycle::2       477537     12.47%     60.26% # Number of insts commited each cycle
system.cpu.commit.committed_per_cycle::3       433468     11.32%     71.58% # Number of insts commited each cycle
system.cpu.commit.committed_per_cycle::4       265870      6.94%     78.53% # Number of insts commited each cycle
system.cpu.commit.committed_per_cycle::5        81539      2.13%     80.66% # Number of insts commited each cycle
system.cpu.commit.committed_per_cycle::6        80013      2.09%     82.75% # Number of insts commited each cycle
system.cpu.commit.committed_per_cycle::7        71847      1.88%     84.62% # Number of insts commited each cycle
system.cpu.commit.committed_per_cycle::8       588775     15.38%    100.00% # Number of insts commited each cycle
system.cpu.commit.committed_per_cycle::overflows            0      0.00%    100.00% # Number of insts commited each cycle
system.cpu.commit.committed_per_cycle::min_value            0                       # Number of insts commited each cycle
system.cpu.commit.committed_per_cycle::max_value            8                       # Number of insts commited each cycle
system.cpu.commit.committed_per_cycle::total      3828859                       # Number of insts commited each cycle
system.cpu.commit.fp_insts                      21259                       # Number of committed floating point instructions.
system.cpu.commit.function_calls               241912                       # Number of function calls committed.
system.cpu.commit.int_insts                   9695144                       # Number of committed integer instructions.
system.cpu.commit.loads                       1423003                       # Number of loads committed
system.cpu.commit.membars                          20                       # Number of memory barriers committed
system.cpu.commit.op_class_0::No_OpClass       184046      1.86%      1.86% # Class of committed instruction
system.cpu.commit.op_class_0::IntAlu          6993503     70.70%     72.56% # Class of committed instruction
system.cpu.commit.op_class_0::IntMult           11885      0.12%     72.68% # Class of committed instruction
system.cpu.commit.op_class_0::IntDiv               14      0.00%     72.68% # Class of committed instruction
system.cpu.commit.op_class_0::FloatAdd           1004      0.01%     72.69% # Class of committed instruction
system.cpu.commit.op_class_0::FloatCmp              0      0.00%     72.69% # Class of committed instruction
system.cpu.commit.op_class_0::FloatCvt              0      0.00%     72.69% # Class of committed instruction
system.cpu.commit.op_class_0::FloatMult             0      0.00%     72.69% # Class of committed instruction
system.cpu.commit.op_class_0::FloatMultAcc            0      0.00%     72.69% # Class of committed instruction
system.cpu.commit.op_class_0::FloatDiv              0      0.00%     72.69% # Class of committed instruction
system.cpu.commit.op_class_0::FloatMisc             0      0.00%     72.69% # Class of committed instruction
system.cpu.commit.op_class_0::FloatSqrt             0      0.00%     72.69% # Class of committed instruction
system.cpu.commit.op_class_0::SimdAdd               6      0.00%     72.69% # Class of committed instruction
system.cpu.commit.op_class_0::SimdAddAcc            0      0.00%     72.69% # Class of committed instruction
system.cpu.commit.op_class_0::SimdAlu              52      0.00%     72.69% # Class of committed instruction
system.cpu.commit.op_class_0::SimdCmp               0      0.00%     72.69% # Class of committed instruction
system.cpu.commit.op_class_0::SimdCvt            4056      0.04%     72.74% # Class of committed instruction
system.cpu.commit.op_class_0::SimdMisc          11071      0.11%     72.85% # Class of committed instruction
system.cpu.commit.op_class_0::SimdMult              0      0.00%     72.85% # Class of committed instruction
system.cpu.commit.op_class_0::SimdMultAcc            0      0.00%     72.85% # Class of committed instruction
system.cpu.commit.op_class_0::SimdShift             7      0.00%     72.85% # Class of committed instruction
system.cpu.commit.op_class_0::SimdShiftAcc            0      0.00%     72.85% # Class of committed instruction
system.cpu.commit.op_class_0::SimdDiv               0      0.00%     72.85% # Class of committed instruction
system.cpu.commit.op_class_0::SimdSqrt              0      0.00%     72.85% # Class of committed instruction
system.cpu.commit.op_class_0::SimdFloatAdd            0      0.00%     72.85% # Class of committed instruction
system.cpu.commit.op_class_0::SimdFloatAlu            0      0.00%     72.85% # Class of committed instruction
system.cpu.commit.op_class_0::SimdFloatCmp            0      0.00%     72.85% # Class of committed instruction
system.cpu.commit.op_class_0::SimdFloatCvt            0      0.00%     72.85% # Class of committed instruction
system.cpu.commit.op_class_0::SimdFloatDiv            0      0.00%     72.85% # Class of committed instruction
system.cpu.commit.op_class_0::SimdFloatMisc            0      0.00%     72.85% # Class of committed instruction
system.cpu.commit.op_class_0::SimdFloatMult            0      0.00%     72.85% # Class of committed instruction
system.cpu.commit.op_class_0::SimdFloatMultAcc            0      0.00%     72.85% # Class of committed instruction
system.cpu.commit.op_class_0::SimdFloatSqrt            0      0.00%     72.85% # Class of committed instruction
system.cpu.commit.op_class_0::SimdReduceAdd            0      0.00%     72.85% # Class of committed instruction
system.cpu.commit.op_class_0::SimdReduceAlu            0      0.00%     72.85% # Class of committed instruction
system.cpu.commit.op_class_0::SimdReduceCmp            0      0.00%     72.85% # Class of committed instruction
system.cpu.commit.op_class_0::SimdFloatReduceAdd            0      0.00%     72.85% # Class of committed instruction
system.cpu.commit.op_class_0::SimdFloatReduceCmp            0      0.00%     72.85% # Class of committed instruction
system.cpu.commit.op_class_0::SimdAes               0      0.00%     72.85% # Class of committed instruction
system.cpu.commit.op_class_0::SimdAesMix            0      0.00%     72.85% # Class of committed instruction
system.cpu.commit.op_class_0::SimdSha1Hash            0      0.00%     72.85% # Class of committed instruction
system.cpu.commit.op_class_0::SimdSha1Hash2            0      0.00%     72.85% # Class of committed instruction
system.cpu.commit.op_class_0::SimdSha256Hash            0      0.00%     72.85% # Class of committed instruction
system.cpu.commit.op_class_0::SimdSha256Hash2            0      0.00%     72.85% # Class of committed instruction
system.cpu.commit.op_class_0::SimdShaSigma2            0      0.00%     72.85% # Class of committed instruction
system.cpu.commit.op_class_0::SimdShaSigma3            0      0.00%     72.85% # Class of committed instruction
system.cpu.commit.op_class_0::SimdPredAlu            0      0.00%     72.85% # Class of committed instruction
system.cpu.commit.op_class_0::MemRead         1418955     14.35%     87.19% # Class of committed instruction
system.cpu.commit.op_class_0::MemWrite        1262738     12.77%     99.96% # Class of committed instruction
system.cpu.commit.op_class_0::FloatMemRead         4048      0.04%    100.00% # Class of committed instruction
system.cpu.commit.op_class_0::FloatMemWrite            0      0.00%    100.00% # Class of committed instruction
system.cpu.commit.op_class_0::IprAccess             0      0.00%    100.00% # Class of committed instruction
system.cpu.commit.op_class_0::InstPrefetch            0      0.00%    100.00% # Class of committed instruction
system.cpu.commit.op_class_0::total           9891385                       # Class of committed instruction
system.cpu.commit.refs                        2685741                       # Number of memory references committed
system.cpu.commit.swp_count                         0                       # Number of s/w prefetches committed
system.cpu.commit.vec_insts                         0                       # Number of committed Vector instructions.
system.cpu.committedInsts                     4862181                       # Number of Instructions Simulated
system.cpu.committedOps                       9891385                       # Number of Ops (including micro ops) Simulated
system.cpu.cpi                               0.955134                       # CPI: Cycles Per Instruction
system.cpu.cpi_total                         0.955134                       # CPI: Total CPI of All Threads
system.cpu.decode.BlockedCycles                645541                       # Number of cycles decode is blocked
system.cpu.decode.DecodedInsts               12205150                       # Number of instructions handled by decode
system.cpu.decode.IdleCycles                  1478938                       # Number of cycles decode is idle
system.cpu.decode.RunCycles                   1690234                       # Number of cycles decode is running
system.cpu.decode.SquashCycles                  56186                       # Number of cycles decode is squashing
system.cpu.decode.UnblockCycles                188292                       # Number of cycles decode is unblocking
system.cpu.dtb.rdAccesses                     1527381                       # TLB accesses on read requests
system.cpu.dtb.rdMisses                          3762                       # TLB misses on read requests
system.cpu.dtb.wrAccesses                     1316068                       # TLB accesses on write requests
system.cpu.dtb.wrMisses                            36                       # TLB misses on write requests
system.cpu.fetch.Branches                     1493314                       # Number of branches that fetch encountered
system.cpu.fetch.CacheLines                   1003405                       # Number of cache lines fetched
system.cpu.fetch.Cycles                       2394238                       # Number of cycles fetch has run and was not squashing or blocked
system.cpu.fetch.IcacheSquashes                 16110                       # Number of outstanding Icache misses that were squashed
system.cpu.fetch.IcacheWaitRetryStallCycles           21                       # Number of stall cycles due to full MSHR
system.cpu.fetch.Insts                        6065118                       # Number of instructions fetch has processed
system.cpu.fetch.MiscStallCycles                  166                       # Number of cycles fetch has spent waiting on interrupts, or bad addresses, or out of MSHRs
system.cpu.fetch.PendingQuiesceStallCycles            7                       # Number of stall cycles due to pending quiesce instructions
system.cpu.fetch.PendingTrapStallCycles           974                       # Number of stall cycles due to pending traps
system.cpu.fetch.SquashCycles                  112372                       # Number of cycles fetch has spent squashing
system.cpu.fetch.branchRate                  0.321555                       # Number of branch fetches per cycle
system.cpu.fetch.icacheStallCycles            1607599                       # Number of cycles fetch is stalled on an Icache miss
system.cpu.fetch.predictedBranches            1029946                       # Number of branches that fetch has predicted taken
system.cpu.fetch.rate                        1.306002                       # Number of inst fetches per cycle
system.cpu.fetch.rateDist::samples            4059191                       # Number of instructions fetched each cycle (Total)
system.cpu.fetch.rateDist::mean              3.139616                       # Number of instructions fetched each cycle (Total)
system.cpu.fetch.rateDist::stdev             3.529262                       # Number of instructions fetched each cycle (Total)
system.cpu.fetch.rateDist::underflows               0      0.00%      0.00% # Number of instructions fetched each cycle (Total)
system.cpu.fetch.rateDist::0                  2007478     49.46%     49.46% # Number of instructions fetched each cycle (Total)
system.cpu.fetch.rateDist::1                    96371      2.37%     51.83% # Number of instructions fetched each cycle (Total)
system.cpu.fetch.rateDist::2                   127320      3.14%     54.97% # Number of instructions fetched each cycle (Total)
system.cpu.fetch.rateDist::3                   210356      5.18%     60.15% # Number of instructions fetched each cycle (Total)
system.cpu.fetch.rateDist::4                   120662      2.97%     63.12% # Number of instructions fetched each cycle (Total)
system.cpu.fetch.rateDist::5                   101142      2.49%     65.61% # Number of instructions fetched each cycle (Total)
system.cpu.fetch.rateDist::6                    87275      2.15%     67.76% # Number of instructions fetched each cycle (Total)
system.cpu.fetch.rateDist::7                   218484      5.38%     73.14% # Number of instructions fetched each cycle (Total)
system.cpu.fetch.rateDist::8                  1090103     26.86%    100.00% # Number of instructions fetched each cycle (Total)
system.cpu.fetch.rateDist::overflows                0      0.00%    100.00% # Number of instructions fetched each cycle (Total)
system.cpu.fetch.rateDist::min_value                0                       # Number of instructions fetched each cycle (Total)
system.cpu.fetch.rateDist::max_value                8                       # Number of instructions fetched each cycle (Total)
system.cpu.fetch.rateDist::total              4059191                       # Number of instructions fetched each cycle (Total)
system.cpu.fp_regfile_reads                     34313                       # number of floating regfile reads
system.cpu.fp_regfile_writes                    18687                       # number of floating regfile writes
system.cpu.idleCycles                          584844                       # Total number of cycles that the CPU has spent unscheduled due to idling
system.cpu.iew.branchMispredicts                66230                       # Number of branch mispredicts detected at execute
system.cpu.iew.exec_branches                  1191741                       # Number of branches executed
system.cpu.iew.exec_nop                             0                       # number of nop insts executed
system.cpu.iew.exec_rate                     2.293262                       # Inst execution rate
system.cpu.iew.exec_refs                      2842881                       # number of memory reference insts executed
system.cpu.iew.exec_stores                    1316032                       # Number of stores executed
system.cpu.iew.exec_swp                             0                       # number of swp insts executed
system.cpu.iew.iewBlockCycles                  184699                       # Number of cycles IEW is blocking
system.cpu.iew.iewDispLoadInsts               1668934                       # Number of dispatched load instructions
system.cpu.iew.iewDispNonSpecInsts               1316                       # Number of dispatched non-speculative instructions
system.cpu.iew.iewDispSquashedInsts              5830                       # Number of squashed instructions skipped by dispatch
system.cpu.iew.iewDispStoreInsts              1424202                       # Number of dispatched store instructions
system.cpu.iew.iewDispatchedInsts            11482888                       # Number of instructions dispatched to IQ
system.cpu.iew.iewExecLoadInsts               1526849                       # Number of load instructions executed
system.cpu.iew.iewExecSquashedInsts             95340                       # Number of squashed instructions skipped in execute
system.cpu.iew.iewExecutedInsts              10649991                       # Number of executed instructions
system.cpu.iew.iewIQFullEvents                    279                       # Number of times the IQ has become full, causing a stall
system.cpu.iew.iewIdleCycles                        0                       # Number of cycles IEW is idle
system.cpu.iew.iewLSQFullEvents                    55                       # Number of times the LSQ has become full, causing a stall
system.cpu.iew.iewSquashCycles                  56186                       # Number of cycles IEW is squashing
system.cpu.iew.iewUnblockCycles                   400                       # Number of cycles IEW is unblocking
system.cpu.iew.lsq.thread0.blockedLoads             0                       # Number of blocked loads due to partial load-store forwarding
system.cpu.iew.lsq.thread0.cacheBlocked            10                       # Number of times an access to memory failed due to the cache being blocked
system.cpu.iew.lsq.thread0.forwLoads           716979                       # Number of loads that had data forwarded from stores
system.cpu.iew.lsq.thread0.ignoredResponses          653                       # Number of memory responses ignored because the instruction is squashed
system.cpu.iew.lsq.thread0.invAddrLoads             0                       # Number of loads ignored due to an invalid address
system.cpu.iew.lsq.thread0.invAddrSwpfs             0                       # Number of software prefetches ignored due to an invalid address
system.cpu.iew.lsq.thread0.memOrderViolation          653                       # Number of memory ordering violations
system.cpu.iew.lsq.thread0.rescheduledLoads            0                       # Number of loads that were rescheduled
system.cpu.iew.lsq.thread0.squashedLoads       245928                       # Number of loads squashed
system.cpu.iew.lsq.thread0.squashedStores       161463                       # Number of stores squashed
system.cpu.iew.memOrderViolationEvents            653                       # Number of memory order violations
system.cpu.iew.predictedNotTakenIncorrect        52704                       # Number of branches that were predicted not taken incorrectly
system.cpu.iew.predictedTakenIncorrect          13526                       # Number of branches that were predicted taken incorrectly
system.cpu.iew.wb_consumers                  13460952                       # num instructions consuming a value
system.cpu.iew.wb_count                      10614843                       # cumulative count of insts written-back
system.cpu.iew.wb_fanout                     0.543549                       # average fanout of values written-back
system.cpu.iew.wb_producers                   7316689                       # num instructions producing a value
system.cpu.iew.wb_rate                       2.285694                       # insts written-back per cycle
system.cpu.iew.wb_sent                       10635805                       # cumulative count of insts sent to commit
system.cpu.int_regfile_reads                 17577751                       # number of integer regfile reads
system.cpu.int_regfile_writes                 8088012                       # number of integer regfile writes
system.cpu.ipc                               1.046973                       # IPC: Instructions Per Cycle
system.cpu.ipc_total                         1.046973                       # IPC: Total IPC of All Threads
system.cpu.iq.FU_type_0::No_OpClass            206269      1.92%      1.92% # Type of FU issued
system.cpu.iq.FU_type_0::IntAlu               7633105     71.04%     72.96% # Type of FU issued
system.cpu.iq.FU_type_0::IntMult                12272      0.11%     73.07% # Type of FU issued
system.cpu.iq.FU_type_0::IntDiv                    14      0.00%     73.07% # Type of FU issued
system.cpu.iq.FU_type_0::FloatAdd                1029      0.01%     73.08% # Type of FU issued
system.cpu.iq.FU_type_0::FloatCmp                   0      0.00%     73.08% # Type of FU issued
system.cpu.iq.FU_type_0::FloatCvt                   0      0.00%     73.08% # Type of FU issued
system.cpu.iq.FU_type_0::FloatMult                  0      0.00%     73.08% # Type of FU issued
system.cpu.iq.FU_type_0::FloatMultAcc               0      0.00%     73.08% # Type of FU issued
system.cpu.iq.FU_type_0::FloatDiv                   0      0.00%     73.08% # Type of FU issued
system.cpu.iq.FU_type_0::FloatMisc                  0      0.00%     73.08% # Type of FU issued
system.cpu.iq.FU_type_0::FloatSqrt                  0      0.00%     73.08% # Type of FU issued
system.cpu.iq.FU_type_0::SimdAdd                    8      0.00%     73.08% # Type of FU issued
system.cpu.iq.FU_type_0::SimdAddAcc                 0      0.00%     73.08% # Type of FU issued
system.cpu.iq.FU_type_0::SimdAlu                   84      0.00%     73.08% # Type of FU issued
system.cpu.iq.FU_type_0::SimdCmp                    0      0.00%     73.08% # Type of FU issued
system.cpu.iq.FU_type_0::SimdCvt                 4747      0.04%     73.13% # Type of FU issued
system.cpu.iq.FU_type_0::SimdMisc               11798      0.11%     73.23% # Type of FU issued
system.cpu.iq.FU_type_0::SimdMult                   0      0.00%     73.23% # Type of FU issued
system.cpu.iq.FU_type_0::SimdMultAcc                0      0.00%     73.23% # Type of FU issued
system.cpu.iq.FU_type_0::SimdShift                 16      0.00%     73.23% # Type of FU issued
system.cpu.iq.FU_type_0::SimdShiftAcc               0      0.00%     73.23% # Type of FU issued
system.cpu.iq.FU_type_0::SimdDiv                    0      0.00%     73.23% # Type of FU issued
system.cpu.iq.FU_type_0::SimdSqrt                   0      0.00%     73.23% # Type of FU issued
system.cpu.iq.FU_type_0::SimdFloatAdd               0      0.00%     73.23% # Type of FU issued
system.cpu.iq.FU_type_0::SimdFloatAlu               0      0.00%     73.23% # Type of FU issued
system.cpu.iq.FU_type_0::SimdFloatCmp               0      0.00%     73.23% # Type of FU issued
system.cpu.iq.FU_type_0::SimdFloatCvt               0      0.00%     73.23% # Type of FU issued
system.cpu.iq.FU_type_0::SimdFloatDiv               0      0.00%     73.23% # Type of FU issued
system.cpu.iq.FU_type_0::SimdFloatMisc              0      0.00%     73.23% # Type of FU issued
system.cpu.iq.FU_type_0::SimdFloatMult              0      0.00%     73.23% # Type of FU issued
system.cpu.iq.FU_type_0::SimdFloatMultAcc            0      0.00%     73.23% # Type of FU issued
system.cpu.iq.FU_type_0::SimdFloatSqrt              0      0.00%     73.23% # Type of FU issued
system.cpu.iq.FU_type_0::SimdReduceAdd              0      0.00%     73.23% # Type of FU issued
system.cpu.iq.FU_type_0::SimdReduceAlu              0      0.00%     73.23% # Type of FU issued
system.cpu.iq.FU_type_0::SimdReduceCmp              0      0.00%     73.23% # Type of FU issued
system.cpu.iq.FU_type_0::SimdFloatReduceAdd            0      0.00%     73.23% # Type of FU issued
system.cpu.iq.FU_type_0::SimdFloatReduceCmp            0      0.00%     73.23% # Type of FU issued
system.cpu.iq.FU_type_0::SimdAes                    0      0.00%     73.23% # Type of FU issued
system.cpu.iq.FU_type_0::SimdAesMix                 0      0.00%     73.23% # Type of FU issued
system.cpu.iq.FU_type_0::SimdSha1Hash               0      0.00%     73.23% # Type of FU issued
system.cpu.iq.FU_type_0::SimdSha1Hash2              0      0.00%     73.23% # Type of FU issued
system.cpu.iq.FU_type_0::SimdSha256Hash             0      0.00%     73.23% # Type of FU issued
system.cpu.iq.FU_type_0::SimdSha256Hash2            0      0.00%     73.23% # Type of FU issued
system.cpu.iq.FU_type_0::SimdShaSigma2              0      0.00%     73.23% # Type of FU issued
system.cpu.iq.FU_type_0::SimdShaSigma3              0      0.00%     73.23% # Type of FU issued
system.cpu.iq.FU_type_0::SimdPredAlu                0      0.00%     73.23% # Type of FU issued
system.cpu.iq.FU_type_0::MemRead              1540894     14.34%     87.58% # Type of FU issued
system.cpu.iq.FU_type_0::MemWrite             1330050     12.38%     99.95% # Type of FU issued
system.cpu.iq.FU_type_0::FloatMemRead            5039      0.05%    100.00% # Type of FU issued
system.cpu.iq.FU_type_0::FloatMemWrite             12      0.00%    100.00% # Type of FU issued
system.cpu.iq.FU_type_0::IprAccess                  0      0.00%    100.00% # Type of FU issued
system.cpu.iq.FU_type_0::InstPrefetch               0      0.00%    100.00% # Type of FU issued
system.cpu.iq.FU_type_0::total               10745337                       # Type of FU issued
system.cpu.iq.fp_alu_accesses                   23800                       # Number of floating point alu accesses
system.cpu.iq.fp_inst_queue_reads               47566                       # Number of floating instruction queue reads
system.cpu.iq.fp_inst_queue_wakeup_accesses        23413                       # Number of floating instruction queue wakeup accesses
system.cpu.iq.fp_inst_queue_writes              27531                       # Number of floating instruction queue writes
system.cpu.iq.fu_busy_cnt                      131300                       # FU busy when requested
system.cpu.iq.fu_busy_rate                   0.012219                       # FU busy rate (busy events/executed inst)
system.cpu.iq.fu_full::No_OpClass                   0      0.00%      0.00% # attempts to use FU when none available
system.cpu.iq.fu_full::IntAlu                   89486     68.15%     68.15% # attempts to use FU when none available
system.cpu.iq.fu_full::IntMult                      0      0.00%     68.15% # attempts to use FU when none available
system.cpu.iq.fu_full::IntDiv                       0      0.00%     68.15% # attempts to use FU when none available
system.cpu.iq.fu_full::FloatAdd                     0      0.00%     68.15% # attempts to use FU when none available
system.cpu.iq.fu_full::FloatCmp                     0      0.00%     68.15% # attempts to use FU when none available
system.cpu.iq.fu_full::FloatCvt                     0      0.00%     68.15% # attempts to use FU when none available
system.cpu.iq.fu_full::FloatMult                    0      0.00%     68.15% # attempts to use FU when none available
system.cpu.iq.fu_full::FloatMultAcc                 0      0.00%     68.15% # attempts to use FU when none available
system.cpu.iq.fu_full::FloatDiv                     0      0.00%     68.15% # attempts to use FU when none available
system.cpu.iq.fu_full::FloatMisc                    0      0.00%     68.15% # attempts to use FU when none available
system.cpu.iq.fu_full::FloatSqrt                    0      0.00%     68.15% # attempts to use FU when none available
system.cpu.iq.fu_full::SimdAdd                      0      0.00%     68.15% # attempts to use FU when none available
system.cpu.iq.fu_full::SimdAddAcc                   0      0.00%     68.15% # attempts to use FU when none available
system.cpu.iq.fu_full::SimdAlu                      5      0.00%     68.16% # attempts to use FU when none available
system.cpu.iq.fu_full::SimdCmp                      0      0.00%     68.16% # attempts to use FU when none available
system.cpu.iq.fu_full::SimdCvt                     36      0.03%     68.19% # attempts to use FU when none available
system.cpu.iq.fu_full::SimdMisc                     0      0.00%     68.19% # attempts to use FU when none available
system.cpu.iq.fu_full::SimdMult                     0      0.00%     68.19% # attempts to use FU when none available
system.cpu.iq.fu_full::SimdMultAcc                  0      0.00%     68.19% # attempts to use FU when none available
system.cpu.iq.fu_full::SimdShift                    0      0.00%     68.19% # attempts to use FU when none available
system.cpu.iq.fu_full::SimdShiftAcc                 0      0.00%     68.19% # attempts to use FU when none available
system.cpu.iq.fu_full::SimdDiv                      0      0.00%     68.19% # attempts to use FU when none available
system.cpu.iq.fu_full::SimdSqrt                     0      0.00%     68.19% # attempts to use FU when none available
system.cpu.iq.fu_full::SimdFloatAdd                 0      0.00%     68.19% # attempts to use FU when none available
system.cpu.iq.fu_full::SimdFloatAlu                 0      0.00%     68.19% # attempts to use FU when none available
system.cpu.iq.fu_full::SimdFloatCmp                 0      0.00%     68.19% # attempts to use FU when none available
system.cpu.iq.fu_full::SimdFloatCvt                 0      0.00%     68.19% # attempts to use FU when none available
system.cpu.iq.fu_full::SimdFloatDiv                 0      0.00%     68.19% # attempts to use FU when none available
system.cpu.iq.fu_full::SimdFloatMisc                0      0.00%     68.19% # attempts to use FU when none available
system.cpu.iq.fu_full::SimdFloatMult                0      0.00%     68.19% # attempts to use FU when none available
system.cpu.iq.fu_full::SimdFloatMultAcc             0      0.00%     68.19% # attempts to use FU when none available
system.cpu.iq.fu_full::SimdFloatSqrt                0      0.00%     68.19% # attempts to use FU when none available
system.cpu.iq.fu_full::SimdReduceAdd                0      0.00%     68.19% # attempts to use FU when none available
system.cpu.iq.fu_full::SimdReduceAlu                0      0.00%     68.19% # attempts to use FU when none available
system.cpu.iq.fu_full::SimdReduceCmp                0      0.00%     68.19% # attempts to use FU when none available
system.cpu.iq.fu_full::SimdFloatReduceAdd            0      0.00%     68.19% # attempts to use FU when none available
system.cpu.iq.fu_full::SimdFloatReduceCmp            0      0.00%     68.19% # attempts to use FU when none available
system.cpu.iq.fu_full::SimdAes                      0      0.00%     68.19% # attempts to use FU when none available
system.cpu.iq.fu_full::SimdAesMix                   0      0.00%     68.19% # attempts to use FU when none available
system.cpu.iq.fu_full::SimdSha1Hash                 0      0.00%     68.19% # attempts to use FU when none available
system.cpu.iq.fu_full::SimdSha1Hash2                0      0.00%     68.19% # attempts to use FU when none available
system.cpu.iq.fu_full::SimdSha256Hash               0      0.00%     68.19% # attempts to use FU when none available
system.cpu.iq.fu_full::SimdSha256Hash2              0      0.00%     68.19% # attempts to use FU when none available
system.cpu.iq.fu_full::SimdShaSigma2                0      0.00%     68.19% # attempts to use FU when none available
system.cpu.iq.fu_full::SimdShaSigma3                0      0.00%     68.19% # attempts to use FU when none available
system.cpu.iq.fu_full::SimdPredAlu                  0      0.00%     68.19% # attempts to use FU when none available
system.cpu.iq.fu_full::MemRead                  26413     20.12%     88.30% # attempts to use FU when none available
system.cpu.iq.fu_full::MemWrite                 15357     11.70%    100.00% # attempts to use FU when none available
system.cpu.iq.fu_full::FloatMemRead                 0      0.00%    100.00% # attempts to use FU when none available
system.cpu.iq.fu_full::FloatMemWrite                3      0.00%    100.00% # attempts to use FU when none available
system.cpu.iq.fu_full::IprAccess                    0      0.00%    100.00% # attempts to use FU when none available
system.cpu.iq.fu_full::InstPrefetch                 0      0.00%    100.00% # attempts to use FU when none available
system.cpu.iq.int_alu_accesses               10646568                       # Number of integer alu accesses
system.cpu.iq.int_inst_queue_reads           25638304                       # Number of integer instruction queue reads
system.cpu.iq.int_inst_queue_wakeup_accesses     10591430                       # Number of integer instruction queue wakeup accesses
system.cpu.iq.int_inst_queue_writes          13047472                       # Number of integer instruction queue writes
system.cpu.iq.iqInstsAdded                   11478914                       # Number of instructions added to the IQ (excludes non-spec)
system.cpu.iq.iqInstsIssued                  10745337                       # Number of instructions issued
system.cpu.iq.iqNonSpecInstsAdded                3974                       # Number of non-speculative instructions added to the IQ
system.cpu.iq.iqSquashedInstsExamined         1591483                       # Number of squashed instructions iterated over during squash; mainly for profiling
system.cpu.iq.iqSquashedInstsIssued              4711                       # Number of squashed instructions issued
system.cpu.iq.iqSquashedNonSpecRemoved           3930                       # Number of squashed non-spec instructions that were removed
system.cpu.iq.iqSquashedOperandsExamined      2587111                       # Number of squashed operands that are examined and possibly removed from graph
system.cpu.iq.issued_per_cycle::samples       4059191                       # Number of insts issued each cycle
system.cpu.iq.issued_per_cycle::mean         2.647162                       # Number of insts issued each cycle
system.cpu.iq.issued_per_cycle::stdev        2.185046                       # Number of insts issued each cycle
system.cpu.iq.issued_per_cycle::underflows            0      0.00%      0.00% # Number of insts issued each cycle
system.cpu.iq.issued_per_cycle::0             1091543     26.89%     26.89% # Number of insts issued each cycle
system.cpu.iq.issued_per_cycle::1              301934      7.44%     34.33% # Number of insts issued each cycle
system.cpu.iq.issued_per_cycle::2              593874     14.63%     48.96% # Number of insts issued each cycle
system.cpu.iq.issued_per_cycle::3              597020     14.71%     63.67% # Number of insts issued each cycle
system.cpu.iq.issued_per_cycle::4              641964     15.82%     79.48% # Number of insts issued each cycle
system.cpu.iq.issued_per_cycle::5              358700      8.84%     88.32% # Number of insts issued each cycle
system.cpu.iq.issued_per_cycle::6              269783      6.65%     94.97% # Number of insts issued each cycle
system.cpu.iq.issued_per_cycle::7              150443      3.71%     98.67% # Number of insts issued each cycle
system.cpu.iq.issued_per_cycle::8               53930      1.33%    100.00% # Number of insts issued each cycle
system.cpu.iq.issued_per_cycle::overflows            0      0.00%    100.00% # Number of insts issued each cycle
system.cpu.iq.issued_per_cycle::min_value            0                       # Number of insts issued each cycle
system.cpu.iq.issued_per_cycle::max_value            8                       # Number of insts issued each cycle
system.cpu.iq.issued_per_cycle::total         4059191                       # Number of insts issued each cycle
system.cpu.iq.rate                           2.313793                       # Inst issue rate
system.cpu.iq.vec_alu_accesses                      0                       # Number of vector alu accesses
system.cpu.iq.vec_inst_queue_reads                  0                       # Number of vector instruction queue reads
system.cpu.iq.vec_inst_queue_wakeup_accesses            0                       # Number of vector instruction queue wakeup accesses
system.cpu.iq.vec_inst_queue_writes                 0                       # Number of vector instruction queue writes
system.cpu.itb.rdAccesses                           0                       # TLB accesses on read requests
system.cpu.itb.rdMisses                             0                       # TLB misses on read requests
system.cpu.itb.wrAccesses                     1003570                       # TLB accesses on write requests
system.cpu.itb.wrMisses                           212                       # TLB misses on write requests
system.cpu.memDep0.conflictingLoads            348480                       # Number of conflicting loads.
system.cpu.memDep0.conflictingStores            65795                       # Number of conflicting stores.
system.cpu.memDep0.insertedLoads              1668934                       # Number of loads inserted to the mem dependence unit.
system.cpu.memDep0.insertedStores             1424202                       # Number of stores inserted to the mem dependence unit.
system.cpu.misc_regfile_reads                 4696454                       # number of misc regfile reads
system.cpu.misc_regfile_writes                      1                       # number of misc regfile writes
system.cpu.numCycles                          4644035                       # number of cpu cycles simulated
system.cpu.numWorkItemsCompleted                    0                       # number of work items this cpu completed
system.cpu.numWorkItemsStarted                      0                       # number of work items this cpu started
system.cpu.rename.BlockCycles                  192442                       # Number of cycles rename is blocking
system.cpu.rename.CommittedMaps               9593862                       # Number of HB maps that are committed
system.cpu.rename.IQFullEvents                  92778                       # Number of times rename has blocked due to IQ full
system.cpu.rename.IdleCycles                  1570562                       # Number of cycles rename is idle
system.cpu.rename.LQFullEvents                   1806                       # Number of times rename has blocked due to LQ full
system.cpu.rename.ROBFullEvents                  1565                       # Number of times rename has blocked due to ROB full
system.cpu.rename.RenameLookups              30073730                       # Number of register rename lookups that rename has made
system.cpu.rename.RenamedInsts               11952338                       # Number of instructions processed by rename
system.cpu.rename.RenamedOperands            11698186                       # Number of destination operands rename has renamed
system.cpu.rename.RunCycles                   1778466                       # Number of cycles rename is running
system.cpu.rename.SQFullEvents                 334190                       # Number of times rename has blocked due to SQ full
system.cpu.rename.SquashCycles                  56186                       # Number of cycles rename is squashing
system.cpu.rename.UnblockCycles                460512                       # Number of cycles rename is unblocking
system.cpu.rename.UndoneMaps                  2104292                       # Number of HB maps that are undone due to squashing
system.cpu.rename.fp_rename_lookups             35912                       # Number of floating rename lookups
system.cpu.rename.int_rename_lookups         19953692                       # Number of integer rename lookups
system.cpu.rename.serializeStallCycles           1023                       # count of cycles rename stalled for serializing inst
system.cpu.rename.serializingInsts                 19                       # count of serializing insts renamed
system.cpu.rename.skidInsts                    738706                       # count of insts added to the skid buffer
system.cpu.rename.tempSerializingInsts             14                       # count of temporary serializing insts renamed
system.cpu.rob.rob_reads                     14722956                       # The number of ROB reads
system.cpu.rob.rob_writes                    23197700                       # The number of ROB writes
system.cpu.timesIdled                           14919                       # Number of times that the entire CPU went into an idle state and unscheduled itself
system.cpu.workload.numSyscalls                    12                       # Number of system calls
system.membus.snoop_filter.hit_multi_requests            4                       # Number of requests hitting in the snoop filter with multiple (>1) holders of the requested data.
system.membus.snoop_filter.hit_multi_snoops            0                       # Number of snoops hitting in the snoop filter with multiple (>1) holders of the requested data.
system.membus.snoop_filter.hit_single_requests        16978                       # Number of requests hitting in the snoop filter with a single holder of the requested data.
system.membus.snoop_filter.hit_single_snoops            0                       # Number of snoops hitting in the snoop filter with a single holder of the requested data.
system.membus.snoop_filter.tot_requests         35226                       # Total number of requests made to the snoop filter.
system.membus.snoop_filter.tot_snoops               0                       # Total number of snoops made to the snoop filter.
system.membus.pwrStateResidencyTicks::UNDEFINED   1546463322                       # Cumulative time (in ticks) in various power states
system.membus.trans_dist::ReadResp              17113                       # Transaction distribution
system.membus.trans_dist::WritebackDirty          316                       # Transaction distribution
system.membus.trans_dist::WritebackClean        16480                       # Transaction distribution
system.membus.trans_dist::CleanEvict              181                       # Transaction distribution
system.membus.trans_dist::ReadExReq              1136                       # Transaction distribution
system.membus.trans_dist::ReadExResp             1136                       # Transaction distribution
system.membus.trans_dist::ReadCleanReq          16728                       # Transaction distribution
system.membus.trans_dist::ReadSharedReq           385                       # Transaction distribution
system.membus.pkt_count_system.cpu.icache.mem_side::system.mem_ctrls.port        49936                       # Packet count per connected master and slave (bytes)
system.membus.pkt_count_system.cpu.icache.mem_side::total        49936                       # Packet count per connected master and slave (bytes)
system.membus.pkt_count_system.cpu.dcache.mem_side::system.mem_ctrls.port         3539                       # Packet count per connected master and slave (bytes)
system.membus.pkt_count_system.cpu.dcache.mem_side::total         3539                       # Packet count per connected master and slave (bytes)
system.membus.pkt_count::total                  53475                       # Packet count per connected master and slave (bytes)
system.membus.pkt_size_system.cpu.icache.mem_side::system.mem_ctrls.port      2125312                       # Cumulative packet size per connected master and slave (bytes)
system.membus.pkt_size_system.cpu.icache.mem_side::total      2125312                       # Cumulative packet size per connected master and slave (bytes)
system.membus.pkt_size_system.cpu.dcache.mem_side::system.mem_ctrls.port       117568                       # Cumulative packet size per connected master and slave (bytes)
system.membus.pkt_size_system.cpu.dcache.mem_side::total       117568                       # Cumulative packet size per connected master and slave (bytes)
system.membus.pkt_size::total                 2242880                       # Cumulative packet size per connected master and slave (bytes)
system.membus.snoops                                0                       # Total snoops (count)
system.membus.snoopTraffic                          0                       # Total snoop traffic (bytes)
system.membus.snoop_fanout::samples             18249                       # Request fanout histogram
system.membus.snoop_fanout::mean             0.000274                       # Request fanout histogram
system.membus.snoop_fanout::stdev            0.016551                       # Request fanout histogram
system.membus.snoop_fanout::underflows              0      0.00%      0.00% # Request fanout histogram
system.membus.snoop_fanout::0                   18244     99.97%     99.97% # Request fanout histogram
system.membus.snoop_fanout::1                       5      0.03%    100.00% # Request fanout histogram
system.membus.snoop_fanout::2                       0      0.00%    100.00% # Request fanout histogram
system.membus.snoop_fanout::3                       0      0.00%    100.00% # Request fanout histogram
system.membus.snoop_fanout::4                       0      0.00%    100.00% # Request fanout histogram
system.membus.snoop_fanout::overflows               0      0.00%    100.00% # Request fanout histogram
system.membus.snoop_fanout::min_value               0                       # Request fanout histogram
system.membus.snoop_fanout::max_value               1                       # Request fanout histogram
system.membus.snoop_fanout::total               18249                       # Request fanout histogram
system.membus.reqLayer2.occupancy           110791031                       # Layer occupancy (ticks)
system.membus.reqLayer2.utilization               7.2                       # Layer utilization (%)
system.membus.respLayer1.occupancy           83915986                       # Layer occupancy (ticks)
system.membus.respLayer1.utilization              5.4                       # Layer utilization (%)
system.membus.respLayer2.occupancy            8141377                       # Layer occupancy (ticks)
system.membus.respLayer2.utilization              0.5                       # Layer utilization (%)
system.voltage_domain.voltage                       1                       # Voltage in Volts
system.clk_domain.clock                          1000                       # Clock period in ticks
system.cpu_voltage_domain.voltage                   1                       # Voltage in Volts
system.mem_ctrls.pwrStateResidencyTicks::UNDEFINED   1546463322                       # Cumulative time (in ticks) in various power states
system.mem_ctrls.bytes_read::.cpu.inst        1070592                       # Number of bytes read from this memory
system.mem_ctrls.bytes_read::.cpu.data          97344                       # Number of bytes read from this memory
system.mem_ctrls.bytes_read::total            1167936                       # Number of bytes read from this memory
system.mem_ctrls.bytes_inst_read::.cpu.inst      1070592                       # Number of instructions bytes read from this memory
system.mem_ctrls.bytes_inst_read::total       1070592                       # Number of instructions bytes read from this memory
system.mem_ctrls.bytes_written::.writebacks        20224                       # Number of bytes written to this memory
system.mem_ctrls.bytes_written::total           20224                       # Number of bytes written to this memory
system.mem_ctrls.num_reads::.cpu.inst           16728                       # Number of read requests responded to by this memory
system.mem_ctrls.num_reads::.cpu.data            1521                       # Number of read requests responded to by this memory
system.mem_ctrls.num_reads::total               18249                       # Number of read requests responded to by this memory
system.mem_ctrls.num_writes::.writebacks          316                       # Number of write requests responded to by this memory
system.mem_ctrls.num_writes::total                316                       # Number of write requests responded to by this memory
system.mem_ctrls.bw_read::.cpu.inst         692284120                       # Total read bandwidth from this memory (bytes/s)
system.mem_ctrls.bw_read::.cpu.data          62946207                       # Total read bandwidth from this memory (bytes/s)
system.mem_ctrls.bw_read::total             755230327                       # Total read bandwidth from this memory (bytes/s)
system.mem_ctrls.bw_inst_read::.cpu.inst    692284120                       # Instruction read bandwidth from this memory (bytes/s)
system.mem_ctrls.bw_inst_read::total        692284120                       # Instruction read bandwidth from this memory (bytes/s)
system.mem_ctrls.bw_write::.writebacks       13077581                       # Write bandwidth from this memory (bytes/s)
system.mem_ctrls.bw_write::total             13077581                       # Write bandwidth from this memory (bytes/s)
system.mem_ctrls.bw_total::.writebacks       13077581                       # Total bandwidth to/from this memory (bytes/s)
system.mem_ctrls.bw_total::.cpu.inst        692284120                       # Total bandwidth to/from this memory (bytes/s)
system.mem_ctrls.bw_total::.cpu.data         62946207                       # Total bandwidth to/from this memory (bytes/s)
system.mem_ctrls.bw_total::total            768307908                       # Total bandwidth to/from this memory (bytes/s)
system.mem_ctrls.avgPriority_.writebacks::samples      1364.00                       # Average QoS priority value for accepted requests
system.mem_ctrls.avgPriority_.cpu.inst::samples       859.00                       # Average QoS priority value for accepted requests
system.mem_ctrls.avgPriority_.cpu.data::samples      1521.00                       # Average QoS priority value for accepted requests
system.mem_ctrls.priorityMinLatency      0.000000018750                       # per QoS priority minimum request to response latency (s)
system.mem_ctrls.priorityMaxLatency      0.000505854838                       # per QoS priority maximum request to response latency (s)
system.mem_ctrls.numReadWriteTurnArounds           78                       # Number of turnarounds from READ to WRITE
system.mem_ctrls.numWriteReadTurnArounds           78                       # Number of turnarounds from WRITE to READ
system.mem_ctrls.numStayReadState               21823                       # Number of times bus staying in READ state
system.mem_ctrls.numStayWriteState               1260                       # Number of times bus staying in WRITE state
system.mem_ctrls.readReqs                       18249                       # Number of read requests accepted
system.mem_ctrls.writeReqs                      16794                       # Number of write requests accepted
system.mem_ctrls.readBursts                     18249                       # Number of DRAM read bursts, including those serviced by the write queue
system.mem_ctrls.writeBursts                    16794                       # Number of DRAM write bursts, including those merged in the write queue
system.mem_ctrls.servicedByWrQ                  15869                       # Number of DRAM read bursts serviced by the write queue
system.mem_ctrls.mergedWrBursts                 15430                       # Number of DRAM write bursts merged with an existing one
system.mem_ctrls.neitherReadNorWriteReqs            0                       # Number of requests that are neither read nor write
system.mem_ctrls.perBankRdBursts::0               263                       # Per bank write bursts
system.mem_ctrls.perBankRdBursts::1               365                       # Per bank write bursts
system.mem_ctrls.perBankRdBursts::2               177                       # Per bank write bursts
system.mem_ctrls.perBankRdBursts::3               144                       # Per bank write bursts
system.mem_ctrls.perBankRdBursts::4               142                       # Per bank write bursts
system.mem_ctrls.perBankRdBursts::5               107                       # Per bank write bursts
system.mem_ctrls.perBankRdBursts::6                19                       # Per bank write bursts
system.mem_ctrls.perBankRdBursts::7                57                       # Per bank write bursts
system.mem_ctrls.perBankRdBursts::8                18                       # Per bank write bursts
system.mem_ctrls.perBankRdBursts::9                57                       # Per bank write bursts
system.mem_ctrls.perBankRdBursts::10               81                       # Per bank write bursts
system.mem_ctrls.perBankRdBursts::11               97                       # Per bank write bursts
system.mem_ctrls.perBankRdBursts::12               77                       # Per bank write bursts
system.mem_ctrls.perBankRdBursts::13              277                       # Per bank write bursts
system.mem_ctrls.perBankRdBursts::14              312                       # Per bank write bursts
system.mem_ctrls.perBankRdBursts::15              187                       # Per bank write bursts
system.mem_ctrls.perBankWrBursts::0                74                       # Per bank write bursts
system.mem_ctrls.perBankWrBursts::1               290                       # Per bank write bursts
system.mem_ctrls.perBankWrBursts::2               122                       # Per bank write bursts
system.mem_ctrls.perBankWrBursts::3                31                       # Per bank write bursts
system.mem_ctrls.perBankWrBursts::4                14                       # Per bank write bursts
system.mem_ctrls.perBankWrBursts::5               140                       # Per bank write bursts
system.mem_ctrls.perBankWrBursts::6                17                       # Per bank write bursts
system.mem_ctrls.perBankWrBursts::7                43                       # Per bank write bursts
system.mem_ctrls.perBankWrBursts::8                15                       # Per bank write bursts
system.mem_ctrls.perBankWrBursts::9                45                       # Per bank write bursts
system.mem_ctrls.perBankWrBursts::10               57                       # Per bank write bursts
system.mem_ctrls.perBankWrBursts::11              105                       # Per bank write bursts
system.mem_ctrls.perBankWrBursts::12              153                       # Per bank write bursts
system.mem_ctrls.perBankWrBursts::13               79                       # Per bank write bursts
system.mem_ctrls.perBankWrBursts::14              113                       # Per bank write bursts
system.mem_ctrls.perBankWrBursts::15               40                       # Per bank write bursts
system.mem_ctrls.avgRdQLen                       1.03                       # Average read queue length when enqueuing
system.mem_ctrls.avgWrQLen                      28.01                       # Average write queue length when enqueuing
system.mem_ctrls.totQLat                     26201579                       # Total ticks spent queuing
system.mem_ctrls.totBusLat                   11900000                       # Total ticks spent in databus transfers
system.mem_ctrls.totMemAccLat                70826579                       # Total ticks spent from burst creation until serviced by the DRAM
system.mem_ctrls.avgQLat                     11009.07                       # Average queueing delay per DRAM burst
system.mem_ctrls.avgBusLat                    5000.00                       # Average bus latency per DRAM burst
system.mem_ctrls.avgMemAccLat                29759.07                       # Average memory access latency per DRAM burst
system.mem_ctrls.numRdRetry                         0                       # Number of times read queue was full causing retry
system.mem_ctrls.numWrRetry                         0                       # Number of times write queue was full causing retry
system.mem_ctrls.readRowHits                     1654                       # Number of row buffer hits during reads
system.mem_ctrls.writeRowHits                     970                       # Number of row buffer hits during writes
system.mem_ctrls.readRowHitRate                 69.50                       # Row buffer hit rate for reads
system.mem_ctrls.writeRowHitRate                71.11                       # Row buffer hit rate for writes
system.mem_ctrls.readPktSize::0                     0                       # Read request sizes (log2)
system.mem_ctrls.readPktSize::1                     0                       # Read request sizes (log2)
system.mem_ctrls.readPktSize::2                     0                       # Read request sizes (log2)
system.mem_ctrls.readPktSize::3                     0                       # Read request sizes (log2)
system.mem_ctrls.readPktSize::4                     0                       # Read request sizes (log2)
system.mem_ctrls.readPktSize::5                     0                       # Read request sizes (log2)
system.mem_ctrls.readPktSize::6                 18249                       # Read request sizes (log2)
system.mem_ctrls.writePktSize::0                    0                       # Write request sizes (log2)
system.mem_ctrls.writePktSize::1                    0                       # Write request sizes (log2)
system.mem_ctrls.writePktSize::2                    0                       # Write request sizes (log2)
system.mem_ctrls.writePktSize::3                    0                       # Write request sizes (log2)
system.mem_ctrls.writePktSize::4                    0                       # Write request sizes (log2)
system.mem_ctrls.writePktSize::5                    0                       # Write request sizes (log2)
system.mem_ctrls.writePktSize::6                16794                       # Write request sizes (log2)
system.mem_ctrls.rdQLenPdf::0                    2006                       # What read queue length does an incoming req see
system.mem_ctrls.rdQLenPdf::1                     273                       # What read queue length does an incoming req see
system.mem_ctrls.rdQLenPdf::2                      76                       # What read queue length does an incoming req see
system.mem_ctrls.rdQLenPdf::3                      21                       # What read queue length does an incoming req see
system.mem_ctrls.rdQLenPdf::4                       4                       # What read queue length does an incoming req see
system.mem_ctrls.rdQLenPdf::5                       0                       # What read queue length does an incoming req see
system.mem_ctrls.rdQLenPdf::6                       0                       # What read queue length does an incoming req see
system.mem_ctrls.rdQLenPdf::7                       0                       # What read queue length does an incoming req see
system.mem_ctrls.rdQLenPdf::8                       0                       # What read queue length does an incoming req see
system.mem_ctrls.rdQLenPdf::9                       0                       # What read queue length does an incoming req see
system.mem_ctrls.rdQLenPdf::10                      0                       # What read queue length does an incoming req see
system.mem_ctrls.rdQLenPdf::11                      0                       # What read queue length does an incoming req see
system.mem_ctrls.rdQLenPdf::12                      0                       # What read queue length does an incoming req see
system.mem_ctrls.rdQLenPdf::13                      0                       # What read queue length does an incoming req see
system.mem_ctrls.rdQLenPdf::14                      0                       # What read queue length does an incoming req see
system.mem_ctrls.rdQLenPdf::15                      0                       # What read queue length does an incoming req see
system.mem_ctrls.rdQLenPdf::16                      0                       # What read queue length does an incoming req see
system.mem_ctrls.rdQLenPdf::17                      0                       # What read queue length does an incoming req see
system.mem_ctrls.rdQLenPdf::18                      0                       # What read queue length does an incoming req see
system.mem_ctrls.rdQLenPdf::19                      0                       # What read queue length does an incoming req see
system.mem_ctrls.rdQLenPdf::20                      0                       # What read queue length does an incoming req see
system.mem_ctrls.rdQLenPdf::21                      0                       # What read queue length does an incoming req see
system.mem_ctrls.rdQLenPdf::22                      0                       # What read queue length does an incoming req see
system.mem_ctrls.rdQLenPdf::23                      0                       # What read queue length does an incoming req see
system.mem_ctrls.rdQLenPdf::24                      0                       # What read queue length does an incoming req see
system.mem_ctrls.rdQLenPdf::25                      0                       # What read queue length does an incoming req see
system.mem_ctrls.rdQLenPdf::26                      0                       # What read queue length does an incoming req see
system.mem_ctrls.rdQLenPdf::27                      0                       # What read queue length does an incoming req see
system.mem_ctrls.rdQLenPdf::28                      0                       # What read queue length does an incoming req see
system.mem_ctrls.rdQLenPdf::29                      0                       # What read queue length does an incoming req see
system.mem_ctrls.rdQLenPdf::30                      0                       # What read queue length does an incoming req see
system.mem_ctrls.rdQLenPdf::31                      0                       # What read queue length does an incoming req see
system.mem_ctrls.wrQLenPdf::0                       1                       # What write queue length does an incoming req see
system.mem_ctrls.wrQLenPdf::1                       1                       # What write queue length does an incoming req see
system.mem_ctrls.wrQLenPdf::2                       1                       # What write queue length does an incoming req see
system.mem_ctrls.wrQLenPdf::3                       1                       # What write queue length does an incoming req see
system.mem_ctrls.wrQLenPdf::4                       1                       # What write queue length does an incoming req see
system.mem_ctrls.wrQLenPdf::5                       1                       # What write queue length does an incoming req see
system.mem_ctrls.wrQLenPdf::6                       1                       # What write queue length does an incoming req see
system.mem_ctrls.wrQLenPdf::7                       1                       # What write queue length does an incoming req see
system.mem_ctrls.wrQLenPdf::8                       1                       # What write queue length does an incoming req see
system.mem_ctrls.wrQLenPdf::9                       1                       # What write queue length does an incoming req see
system.mem_ctrls.wrQLenPdf::10                      1                       # What write queue length does an incoming req see
system.mem_ctrls.wrQLenPdf::11                      1                       # What write queue length does an incoming req see
system.mem_ctrls.wrQLenPdf::12                      1                       # What write queue length does an incoming req see
system.mem_ctrls.wrQLenPdf::13                      1                       # What write queue length does an incoming req see
system.mem_ctrls.wrQLenPdf::14                      1                       # What write queue length does an incoming req see
system.mem_ctrls.wrQLenPdf::15                     41                       # What write queue length does an incoming req see
system.mem_ctrls.wrQLenPdf::16                     41                       # What write queue length does an incoming req see
system.mem_ctrls.wrQLenPdf::17                     73                       # What write queue length does an incoming req see
system.mem_ctrls.wrQLenPdf::18                     80                       # What write queue length does an incoming req see
system.mem_ctrls.wrQLenPdf::19                     79                       # What write queue length does an incoming req see
system.mem_ctrls.wrQLenPdf::20                     79                       # What write queue length does an incoming req see
system.mem_ctrls.wrQLenPdf::21                     79                       # What write queue length does an incoming req see
system.mem_ctrls.wrQLenPdf::22                     82                       # What write queue length does an incoming req see
system.mem_ctrls.wrQLenPdf::23                     82                       # What write queue length does an incoming req see
system.mem_ctrls.wrQLenPdf::24                     80                       # What write queue length does an incoming req see
system.mem_ctrls.wrQLenPdf::25                     80                       # What write queue length does an incoming req see
system.mem_ctrls.wrQLenPdf::26                     83                       # What write queue length does an incoming req see
system.mem_ctrls.wrQLenPdf::27                     79                       # What write queue length does an incoming req see
system.mem_ctrls.wrQLenPdf::28                     78                       # What write queue length does an incoming req see
system.mem_ctrls.wrQLenPdf::29                     79                       # What write queue length does an incoming req see
system.mem_ctrls.wrQLenPdf::30                     78                       # What write queue length does an incoming req see
system.mem_ctrls.wrQLenPdf::31                     78                       # What write queue length does an incoming req see
system.mem_ctrls.wrQLenPdf::32                     78                       # What write queue length does an incoming req see
system.mem_ctrls.wrQLenPdf::33                      0                       # What write queue length does an incoming req see
system.mem_ctrls.wrQLenPdf::34                      0                       # What write queue length does an incoming req see
system.mem_ctrls.wrQLenPdf::35                      0                       # What write queue length does an incoming req see
system.mem_ctrls.wrQLenPdf::36                      0                       # What write queue length does an incoming req see
system.mem_ctrls.wrQLenPdf::37                      0                       # What write queue length does an incoming req see
system.mem_ctrls.wrQLenPdf::38                      0                       # What write queue length does an incoming req see
system.mem_ctrls.wrQLenPdf::39                      0                       # What write queue length does an incoming req see
system.mem_ctrls.wrQLenPdf::40                      0                       # What write queue length does an incoming req see
system.mem_ctrls.wrQLenPdf::41                      0                       # What write queue length does an incoming req see
system.mem_ctrls.wrQLenPdf::42                      0                       # What write queue length does an incoming req see
system.mem_ctrls.wrQLenPdf::43                      0                       # What write queue length does an incoming req see
system.mem_ctrls.wrQLenPdf::44                      0                       # What write queue length does an incoming req see
system.mem_ctrls.wrQLenPdf::45                      0                       # What write queue length does an incoming req see
system.mem_ctrls.wrQLenPdf::46                      0                       # What write queue length does an incoming req see
system.mem_ctrls.wrQLenPdf::47                      0                       # What write queue length does an incoming req see
system.mem_ctrls.wrQLenPdf::48                      0                       # What write queue length does an incoming req see
system.mem_ctrls.wrQLenPdf::49                      0                       # What write queue length does an incoming req see
system.mem_ctrls.wrQLenPdf::50                      0                       # What write queue length does an incoming req see
system.mem_ctrls.wrQLenPdf::51                      0                       # What write queue length does an incoming req see
system.mem_ctrls.wrQLenPdf::52                      0                       # What write queue length does an incoming req see
system.mem_ctrls.wrQLenPdf::53                      0                       # What write queue length does an incoming req see
system.mem_ctrls.wrQLenPdf::54                      0                       # What write queue length does an incoming req see
system.mem_ctrls.wrQLenPdf::55                      0                       # What write queue length does an incoming req see
system.mem_ctrls.wrQLenPdf::56                      0                       # What write queue length does an incoming req see
system.mem_ctrls.wrQLenPdf::57                      0                       # What write queue length does an incoming req see
system.mem_ctrls.wrQLenPdf::58                      0                       # What write queue length does an incoming req see
system.mem_ctrls.wrQLenPdf::59                      0                       # What write queue length does an incoming req see
system.mem_ctrls.wrQLenPdf::60                      0                       # What write queue length does an incoming req see
system.mem_ctrls.wrQLenPdf::61                      0                       # What write queue length does an incoming req see
system.mem_ctrls.wrQLenPdf::62                      0                       # What write queue length does an incoming req see
system.mem_ctrls.wrQLenPdf::63                      0                       # What write queue length does an incoming req see
system.mem_ctrls.bytesPerActivate::samples         1084                       # Bytes accessed per row activation
system.mem_ctrls.bytesPerActivate::mean    218.391144                       # Bytes accessed per row activation
system.mem_ctrls.bytesPerActivate::gmean   159.130206                       # Bytes accessed per row activation
system.mem_ctrls.bytesPerActivate::stdev   208.413136                       # Bytes accessed per row activation
system.mem_ctrls.bytesPerActivate::0-127          318     29.34%     29.34% # Bytes accessed per row activation
system.mem_ctrls.bytesPerActivate::128-255          431     39.76%     69.10% # Bytes accessed per row activation
system.mem_ctrls.bytesPerActivate::256-383          187     17.25%     86.35% # Bytes accessed per row activation
system.mem_ctrls.bytesPerActivate::384-511           56      5.17%     91.51% # Bytes accessed per row activation
system.mem_ctrls.bytesPerActivate::512-639           31      2.86%     94.37% # Bytes accessed per row activation
system.mem_ctrls.bytesPerActivate::640-767           10      0.92%     95.30% # Bytes accessed per row activation
system.mem_ctrls.bytesPerActivate::768-895            8      0.74%     96.03% # Bytes accessed per row activation
system.mem_ctrls.bytesPerActivate::896-1023            7      0.65%     96.68% # Bytes accessed per row activation
system.mem_ctrls.bytesPerActivate::1024-1151           36      3.32%    100.00% # Bytes accessed per row activation
system.mem_ctrls.bytesPerActivate::total         1084                       # Bytes accessed per row activation
system.mem_ctrls.rdPerTurnAround::samples           78                       # Reads before turning the bus around for writes
system.mem_ctrls.rdPerTurnAround::mean      30.397436                       # Reads before turning the bus around for writes
system.mem_ctrls.rdPerTurnAround::gmean     20.783719                       # Reads before turning the bus around for writes
system.mem_ctrls.rdPerTurnAround::stdev     53.551369                       # Reads before turning the bus around for writes
system.mem_ctrls.rdPerTurnAround::0-15             23     29.49%     29.49% # Reads before turning the bus around for writes
system.mem_ctrls.rdPerTurnAround::16-31            40     51.28%     80.77% # Reads before turning the bus around for writes
system.mem_ctrls.rdPerTurnAround::32-47            10     12.82%     93.59% # Reads before turning the bus around for writes
system.mem_ctrls.rdPerTurnAround::48-63             1      1.28%     94.87% # Reads before turning the bus around for writes
system.mem_ctrls.rdPerTurnAround::64-79             1      1.28%     96.15% # Reads before turning the bus around for writes
system.mem_ctrls.rdPerTurnAround::80-95             1      1.28%     97.44% # Reads before turning the bus around for writes
system.mem_ctrls.rdPerTurnAround::288-303            1      1.28%     98.72% # Reads before turning the bus around for writes
system.mem_ctrls.rdPerTurnAround::384-399            1      1.28%    100.00% # Reads before turning the bus around for writes
system.mem_ctrls.rdPerTurnAround::total            78                       # Reads before turning the bus around for writes
system.mem_ctrls.wrPerTurnAround::samples           78                       # Writes before turning the bus around for reads
system.mem_ctrls.wrPerTurnAround::mean      17.153846                       # Writes before turning the bus around for reads
system.mem_ctrls.wrPerTurnAround::gmean     17.113821                       # Writes before turning the bus around for reads
system.mem_ctrls.wrPerTurnAround::stdev      1.185156                       # Writes before turning the bus around for reads
system.mem_ctrls.wrPerTurnAround::16               38     48.72%     48.72% # Writes before turning the bus around for reads
system.mem_ctrls.wrPerTurnAround::18               31     39.74%     88.46% # Writes before turning the bus around for reads
system.mem_ctrls.wrPerTurnAround::19                8     10.26%     98.72% # Writes before turning the bus around for reads
system.mem_ctrls.wrPerTurnAround::20                1      1.28%    100.00% # Writes before turning the bus around for reads
system.mem_ctrls.wrPerTurnAround::total            78                       # Writes before turning the bus around for reads
system.mem_ctrls.bytesReadDRAM                 152320                       # Total number of bytes read from DRAM
system.mem_ctrls.bytesReadWrQ                 1015616                       # Total number of bytes read from write queue
system.mem_ctrls.bytesWritten                   85632                       # Total number of bytes written to DRAM
system.mem_ctrls.bytesReadSys                 1167936                       # Total read bytes from the system interface side
system.mem_ctrls.bytesWrittenSys              1074816                       # Total written bytes from the system interface side
system.mem_ctrls.avgRdBW                        98.50                       # Average DRAM read bandwidth in MiByte/s
system.mem_ctrls.avgWrBW                        55.37                       # Average achieved write bandwidth in MiByte/s
system.mem_ctrls.avgRdBWSys                    755.23                       # Average system read bandwidth in MiByte/s
system.mem_ctrls.avgWrBWSys                    695.02                       # Average system write bandwidth in MiByte/s
system.mem_ctrls.peakBW                      12800.00                       # Theoretical peak bandwidth in MiByte/s
system.mem_ctrls.busUtil                         1.20                       # Data bus utilization in percentage
system.mem_ctrls.busUtilRead                     0.77                       # Data bus utilization in percentage for reads
system.mem_ctrls.busUtilWrite                    0.43                       # Data bus utilization in percentage for writes
system.mem_ctrls.totGap                    1546460325                       # Total gap between requests
system.mem_ctrls.avgGap                      44130.36                       # Average gap between requests
[...]
system.cpu.icache.ReadReq_avg_mshr_miss_latency::total 67327.804878                       # average ReadReq mshr miss latency
system.cpu.icache.tags.pwrStateResidencyTicks::UNDEFINED    115288596                       # Cumulative time (in ticks) in various power states
system.cpu.icache.tags.tagsinuse           254.488349                       # Cycle average of tags in use
system.cpu.icache.tags.total_refs             1523332                       # Total number of references to valid blocks.
system.cpu.icache.tags.sampled_refs               494                       # Sample count of references to valid blocks.
system.cpu.icache.tags.avg_refs           3083.668016                       # Average number of references to valid blocks.
system.cpu.icache.tags.warmup_cycle                 0                       # Cycle when the warmup percentage was hit.
system.cpu.icache.tags.occ_blocks::.cpu.inst   254.488349                       # Average occupied blocks per requestor
system.cpu.icache.tags.occ_percent::.cpu.inst     0.994095                       # Average percentage of cache occupancy
system.cpu.icache.tags.occ_percent::total     0.994095                       # Average percentage of cache occupancy
system.cpu.icache.tags.occ_task_id_blocks::1024          256                       # Occupied blocks per task id
system.cpu.icache.tags.age_task_id_blocks_1024::0           59                       # Occupied blocks per task id
system.cpu.icache.tags.age_task_id_blocks_1024::1          102                       # Occupied blocks per task id
system.cpu.icache.tags.age_task_id_blocks_1024::2           40                       # Occupied blocks per task id
system.cpu.icache.tags.age_task_id_blocks_1024::3           55                       # Occupied blocks per task id
system.cpu.icache.tags.occ_task_id_percent::1024            1                       # Percentage of cache occupancy per task id
system.cpu.icache.tags.tag_accesses            173394                       # Number of tag accesses
system.cpu.icache.tags.data_accesses           173394                       # Number of data accesses
system.cpu.dtb.walker.pwrStateResidencyTicks::UNDEFINED    115288596                       # Cumulative time (in ticks) in various power states
system.cpu.interrupts.clk_domain.clock           5328                       # Clock period in ticks
system.cpu.itb_walker_cache.pwrStateResidencyTicks::UNDEFINED    115288596                       # Cumulative time (in ticks) in various power states
system.cpu.itb_walker_cache.blocked_cycles::no_mshrs            0                       # number of cycles access was blocked
system.cpu.itb_walker_cache.blocked_cycles::no_targets            0                       # number of cycles access was blocked
system.cpu.itb_walker_cache.blocked::no_mshrs            0                       # number of cycles access was blocked
system.cpu.itb_walker_cache.blocked::no_targets            0                       # number of cycles access was blocked
system.cpu.itb_walker_cache.avg_blocked_cycles::no_mshrs          nan                       # average number of cycles each access was blocked
system.cpu.itb_walker_cache.avg_blocked_cycles::no_targets          nan                       # average number of cycles each access was blocked
system.cpu.itb_walker_cache.replacements            0                       # number of replacements
system.cpu.itb_walker_cache.tags.pwrStateResidencyTicks::UNDEFINED    115288596                       # Cumulative time (in ticks) in various power states
system.cpu.itb_walker_cache.tags.tagsinuse            0                       # Cycle average of tags in use
system.cpu.itb_walker_cache.tags.total_refs            0                       # Total number of references to valid blocks.
system.cpu.itb_walker_cache.tags.sampled_refs            0                       # Sample count of references to valid blocks.
system.cpu.itb_walker_cache.tags.avg_refs          nan                       # Average number of references to valid blocks.
system.cpu.itb_walker_cache.tags.warmup_cycle            0                       # Cycle when the warmup percentage was hit.
system.cpu.itb_walker_cache.tags.tag_accesses            0                       # Number of tag accesses
system.cpu.itb_walker_cache.tags.data_accesses            0                       # Number of data accesses
system.cpu.itb.walker.pwrStateResidencyTicks::UNDEFINED    115288596                       # Cumulative time (in ticks) in various power states
system.cpu.dtb_walker_cache.pwrStateResidencyTicks::UNDEFINED    115288596                       # Cumulative time (in ticks) in various power states
system.cpu.dtb_walker_cache.blocked_cycles::no_mshrs            0                       # number of cycles access was blocked
system.cpu.dtb_walker_cache.blocked_cycles::no_targets            0                       # number of cycles access was blocked
system.cpu.dtb_walker_cache.blocked::no_mshrs            0                       # number of cycles access was blocked
system.cpu.dtb_walker_cache.blocked::no_targets            0                       # number of cycles access was blocked
system.cpu.dtb_walker_cache.avg_blocked_cycles::no_mshrs          nan                       # average number of cycles each access was blocked
system.cpu.dtb_walker_cache.avg_blocked_cycles::no_targets          nan                       # average number of cycles each access was blocked
system.cpu.dtb_walker_cache.replacements            0                       # number of replacements
system.cpu.dtb_walker_cache.tags.pwrStateResidencyTicks::UNDEFINED    115288596                       # Cumulative time (in ticks) in various power states
system.cpu.dtb_walker_cache.tags.tagsinuse            0                       # Cycle average of tags in use
system.cpu.dtb_walker_cache.tags.total_refs            0                       # Total number of references to valid blocks.
system.cpu.dtb_walker_cache.tags.sampled_refs            0                       # Sample count of references to valid blocks.
system.cpu.dtb_walker_cache.tags.avg_refs          nan                       # Average number of references to valid blocks.
system.cpu.dtb_walker_cache.tags.warmup_cycle            0                       # Cycle when the warmup percentage was hit.
system.cpu.dtb_walker_cache.tags.tag_accesses            0                       # Number of tag accesses
system.cpu.dtb_walker_cache.tags.data_accesses            0                       # Number of data accesses
system.cpu.dcache.pwrStateResidencyTicks::UNDEFINED    115288596                       # Cumulative time (in ticks) in various power states
system.cpu.dcache.demand_hits::.cpu.data       179705                       # number of demand (read+write) hits
system.cpu.dcache.demand_hits::total           179705                       # number of demand (read+write) hits
system.cpu.dcache.overall_hits::.cpu.data       179705                       # number of overall hits
system.cpu.dcache.overall_hits::total          179705                       # number of overall hits
system.cpu.dcache.demand_misses::.cpu.data          338                       # number of demand (read+write) misses
system.cpu.dcache.demand_misses::total            338                       # number of demand (read+write) misses
system.cpu.dcache.overall_misses::.cpu.data          338                       # number of overall misses
system.cpu.dcache.overall_misses::total           338                       # number of overall misses
system.cpu.dcache.demand_miss_latency::.cpu.data     20549634                       # number of demand (read+write) miss cycles
system.cpu.dcache.demand_miss_latency::total     20549634                       # number of demand (read+write) miss cycles
system.cpu.dcache.overall_miss_latency::.cpu.data     20549634                       # number of overall miss cycles
system.cpu.dcache.overall_miss_latency::total     20549634                       # number of overall miss cycles
system.cpu.dcache.demand_accesses::.cpu.data       180043                       # number of demand (read+write) accesses
system.cpu.dcache.demand_accesses::total       180043                       # number of demand (read+write) accesses
system.cpu.dcache.overall_accesses::.cpu.data       180043                       # number of overall (read+write) accesses
system.cpu.dcache.overall_accesses::total       180043                       # number of overall (read+write) accesses
system.cpu.dcache.demand_miss_rate::.cpu.data     0.001877                       # miss rate for demand accesses
system.cpu.dcache.demand_miss_rate::total     0.001877                       # miss rate for demand accesses
system.cpu.dcache.overall_miss_rate::.cpu.data     0.001877                       # miss rate for overall accesses
system.cpu.dcache.overall_miss_rate::total     0.001877                       # miss rate for overall accesses
system.cpu.dcache.demand_avg_miss_latency::.cpu.data 60797.733728                       # average overall miss latency
system.cpu.dcache.demand_avg_miss_latency::total 60797.733728                       # average overall miss latency
system.cpu.dcache.overall_avg_miss_latency::.cpu.data 60797.733728                       # average overall miss latency
system.cpu.dcache.overall_avg_miss_latency::total 60797.733728                       # average overall miss latency
system.cpu.dcache.blocked_cycles::no_mshrs          538                       # number of cycles access was blocked
system.cpu.dcache.blocked_cycles::no_targets            0                       # number of cycles access was blocked
system.cpu.dcache.blocked::no_mshrs                 7                       # number of cycles access was blocked
system.cpu.dcache.blocked::no_targets               0                       # number of cycles access was blocked
system.cpu.dcache.avg_blocked_cycles::no_mshrs    76.857143                       # average number of cycles each access was blocked
system.cpu.dcache.avg_blocked_cycles::no_targets          nan                       # average number of cycles each access was blocked
system.cpu.dcache.writebacks::.writebacks          123                       # number of writebacks
system.cpu.dcache.writebacks::total               123                       # number of writebacks
system.cpu.dcache.demand_mshr_hits::.cpu.data           95                       # number of demand (read+write) MSHR hits
system.cpu.dcache.demand_mshr_hits::total           95                       # number of demand (read+write) MSHR hits
system.cpu.dcache.overall_mshr_hits::.cpu.data           95                       # number of overall MSHR hits
system.cpu.dcache.overall_mshr_hits::total           95                       # number of overall MSHR hits
system.cpu.dcache.demand_mshr_misses::.cpu.data          243                       # number of demand (read+write) MSHR misses
system.cpu.dcache.demand_mshr_misses::total          243                       # number of demand (read+write) MSHR misses
system.cpu.dcache.overall_mshr_misses::.cpu.data          243                       # number of overall MSHR misses
system.cpu.dcache.overall_mshr_misses::total          243                       # number of overall MSHR misses
system.cpu.dcache.demand_mshr_miss_latency::.cpu.data     14909215                       # number of demand (read+write) MSHR miss cycles
system.cpu.dcache.demand_mshr_miss_latency::total     14909215                       # number of demand (read+write) MSHR miss cycles
system.cpu.dcache.overall_mshr_miss_latency::.cpu.data     14909215                       # number of overall MSHR miss cycles
system.cpu.dcache.overall_mshr_miss_latency::total     14909215                       # number of overall MSHR miss cycles
system.cpu.dcache.demand_mshr_miss_rate::.cpu.data     0.001350                       # mshr miss rate for demand accesses
system.cpu.dcache.demand_mshr_miss_rate::total     0.001350                       # mshr miss rate for demand accesses
system.cpu.dcache.overall_mshr_miss_rate::.cpu.data     0.001350                       # mshr miss rate for overall accesses
system.cpu.dcache.overall_mshr_miss_rate::total     0.001350                       # mshr miss rate for overall accesses
system.cpu.dcache.demand_avg_mshr_miss_latency::.cpu.data 61354.794239                       # average overall mshr miss latency
system.cpu.dcache.demand_avg_mshr_miss_latency::total 61354.794239                       # average overall mshr miss latency
system.cpu.dcache.overall_avg_mshr_miss_latency::.cpu.data 61354.794239                       # average overall mshr miss latency
system.cpu.dcache.overall_avg_mshr_miss_latency::total 61354.794239                       # average overall mshr miss latency
system.cpu.dcache.replacements                    243                       # number of replacements
system.cpu.dcache.ReadReq_hits::.cpu.data        44071                       # number of ReadReq hits
system.cpu.dcache.ReadReq_hits::total           44071                       # number of ReadReq hits
system.cpu.dcache.ReadReq_misses::.cpu.data          316                       # number of ReadReq misses
system.cpu.dcache.ReadReq_misses::total           316                       # number of ReadReq misses
system.cpu.dcache.ReadReq_miss_latency::.cpu.data     19307544                       # number of ReadReq miss cycles
system.cpu.dcache.ReadReq_miss_latency::total     19307544                       # number of ReadReq miss cycles
system.cpu.dcache.ReadReq_accesses::.cpu.data        44387                       # number of ReadReq accesses(hits+misses)
system.cpu.dcache.ReadReq_accesses::total        44387                       # number of ReadReq accesses(hits+misses)
system.cpu.dcache.ReadReq_miss_rate::.cpu.data     0.007119                       # miss rate for ReadReq accesses
system.cpu.dcache.ReadReq_miss_rate::total     0.007119                       # miss rate for ReadReq accesses
system.cpu.dcache.ReadReq_avg_miss_latency::.cpu.data 61099.822785                       # average ReadReq miss latency
system.cpu.dcache.ReadReq_avg_miss_latency::total 61099.822785                       # average ReadReq miss latency
system.cpu.dcache.ReadReq_mshr_hits::.cpu.data           95                       # number of ReadReq MSHR hits
system.cpu.dcache.ReadReq_mshr_hits::total           95                       # number of ReadReq MSHR hits
system.cpu.dcache.ReadReq_mshr_misses::.cpu.data          221                       # number of ReadReq MSHR misses
system.cpu.dcache.ReadReq_mshr_misses::total          221                       # number of ReadReq MSHR misses
system.cpu.dcache.ReadReq_mshr_miss_latency::.cpu.data     13685519                       # number of ReadReq MSHR miss cycles
system.cpu.dcache.ReadReq_mshr_miss_latency::total     13685519                       # number of ReadReq MSHR miss cycles
system.cpu.dcache.ReadReq_mshr_miss_rate::.cpu.data     0.004979                       # mshr miss rate for ReadReq accesses
system.cpu.dcache.ReadReq_mshr_miss_rate::total     0.004979                       # mshr miss rate for ReadReq accesses
system.cpu.dcache.ReadReq_avg_mshr_miss_latency::.cpu.data 61925.425339                       # average ReadReq mshr miss latency
system.cpu.dcache.ReadReq_avg_mshr_miss_latency::total 61925.425339                       # average ReadReq mshr miss latency
system.cpu.dcache.WriteReq_hits::.cpu.data       135634                       # number of WriteReq hits
system.cpu.dcache.WriteReq_hits::total         135634                       # number of WriteReq hits
system.cpu.dcache.WriteReq_misses::.cpu.data           22                       # number of WriteReq misses
system.cpu.dcache.WriteReq_misses::total           22                       # number of WriteReq misses
system.cpu.dcache.WriteReq_miss_latency::.cpu.data      1242090                       # number of WriteReq miss cycles
system.cpu.dcache.WriteReq_miss_latency::total      1242090                       # number of WriteReq miss cycles
system.cpu.dcache.WriteReq_accesses::.cpu.data       135656                       # number of WriteReq accesses(hits+misses)
system.cpu.dcache.WriteReq_accesses::total       135656                       # number of WriteReq accesses(hits+misses)
system.cpu.dcache.WriteReq_miss_rate::.cpu.data     0.000162                       # miss rate for WriteReq accesses
system.cpu.dcache.WriteReq_miss_rate::total     0.000162                       # miss rate for WriteReq accesses
system.cpu.dcache.WriteReq_avg_miss_latency::.cpu.data 56458.636364                       # average WriteReq miss latency
system.cpu.dcache.WriteReq_avg_miss_latency::total 56458.636364                       # average WriteReq miss latency
system.cpu.dcache.WriteReq_mshr_misses::.cpu.data           22                       # number of WriteReq MSHR misses
system.cpu.dcache.WriteReq_mshr_misses::total           22                       # number of WriteReq MSHR misses
system.cpu.dcache.WriteReq_mshr_miss_latency::.cpu.data      1223696                       # number of WriteReq MSHR miss cycles
system.cpu.dcache.WriteReq_mshr_miss_latency::total      1223696                       # number of WriteReq MSHR miss cycles
system.cpu.dcache.WriteReq_mshr_miss_rate::.cpu.data     0.000162                       # mshr miss rate for WriteReq accesses
system.cpu.dcache.WriteReq_mshr_miss_rate::total     0.000162                       # mshr miss rate for WriteReq accesses
system.cpu.dcache.WriteReq_avg_mshr_miss_latency::.cpu.data 55622.545455                       # average WriteReq mshr miss latency
system.cpu.dcache.WriteReq_avg_mshr_miss_latency::total 55622.545455                       # average WriteReq mshr miss latency
system.cpu.dcache.tags.pwrStateResidencyTicks::UNDEFINED    115288596                       # Cumulative time (in ticks) in various power states
system.cpu.dcache.tags.tagsinuse                 1024                       # Cycle average of tags in use
system.cpu.dcache.tags.total_refs             1868669                       # Total number of references to valid blocks.
system.cpu.dcache.tags.sampled_refs              1267                       # Sample count of references to valid blocks.
system.cpu.dcache.tags.avg_refs           1474.876875                       # Average number of references to valid blocks.
system.cpu.dcache.tags.warmup_cycle                 0                       # Cycle when the warmup percentage was hit.
system.cpu.dcache.tags.occ_blocks::.cpu.data         1024                       # Average occupied blocks per requestor
system.cpu.dcache.tags.occ_percent::.cpu.data            1                       # Average percentage of cache occupancy
system.cpu.dcache.tags.occ_percent::total            1                       # Average percentage of cache occupancy
system.cpu.dcache.tags.occ_task_id_blocks::1024         1024                       # Occupied blocks per task id
system.cpu.dcache.tags.age_task_id_blocks_1024::0           59                       # Occupied blocks per task id
system.cpu.dcache.tags.age_task_id_blocks_1024::1          104                       # Occupied blocks per task id
system.cpu.dcache.tags.age_task_id_blocks_1024::2          371                       # Occupied blocks per task id
system.cpu.dcache.tags.age_task_id_blocks_1024::3          490                       # Occupied blocks per task id
system.cpu.dcache.tags.occ_task_id_percent::1024            1                       # Percentage of cache occupancy per task id
system.cpu.dcache.tags.tag_accesses            360329                       # Number of tag accesses
system.cpu.dcache.tags.data_accesses           360329                       # Number of data accesses

---------- End Simulation Statistics   ----------
